data_image0
_cell_length_a       32.509
_cell_length_b       32.509
_cell_length_c       32.509
_cell_angle_alpha    90
_cell_angle_beta     90
_cell_angle_gamma    90

_symmetry_space_group_name_H-M    "P 1"
_symmetry_int_tables_number       1

loop_
  _symmetry_equiv_pos_as_xyz
  'x, y, z'

loop_
  _atom_site_label
  _atom_site_occupancy
  _atom_site_fract_x
  _atom_site_fract_y
  _atom_site_fract_z
  _atom_site_thermal_displace_type
  _atom_site_B_iso_or_equiv
  _atom_site_type_symbol
  C1       1.0000 0.00000  0.77690  0.22310  Biso   1.000  C
  C2       1.0000 0.00000  0.81020  0.18980  Biso   1.000  C
  C3       1.0000 0.00000  0.87290  0.12710  Biso   1.000  C
  C4       1.0000 0.00000  0.90250  0.09750  Biso   1.000  C
  C5       1.0000 0.00000  0.22310  0.22310  Biso   1.000  C
  C6       1.0000 0.00000  0.18980  0.18980  Biso   1.000  C
  C7       1.0000 0.00000  0.12710  0.12710  Biso   1.000  C
  C8       1.0000 0.00000  0.09750  0.09750  Biso   1.000  C
  C9       1.0000 0.00000  0.77690  0.77690  Biso   1.000  C
  C10      1.0000 0.00000  0.81020  0.81020  Biso   1.000  C
  C11      1.0000 0.00000  0.87290  0.87290  Biso   1.000  C
  C12      1.0000 0.00000  0.90250  0.90250  Biso   1.000  C
  C13      1.0000 0.00000  0.22310  0.77690  Biso   1.000  C
  C14      1.0000 0.00000  0.18980  0.81020  Biso   1.000  C
  C15      1.0000 0.00000  0.12710  0.87290  Biso   1.000  C
  C16      1.0000 0.00000  0.09750  0.90250  Biso   1.000  C
  C17      1.0000 0.22310  0.00000  0.77690  Biso   1.000  C
  C18      1.0000 0.18980  0.00000  0.81020  Biso   1.000  C
  C19      1.0000 0.12710  0.00000  0.87290  Biso   1.000  C
  C20      1.0000 0.09750  0.00000  0.90250  Biso   1.000  C
  C21      1.0000 0.22310  0.00000  0.22310  Biso   1.000  C
  C22      1.0000 0.18980  0.00000  0.18980  Biso   1.000  C
  C23      1.0000 0.12710  0.00000  0.12710  Biso   1.000  C
  C24      1.0000 0.09750  0.00000  0.09750  Biso   1.000  C
  C25      1.0000 0.77690  0.00000  0.77690  Biso   1.000  C
  C26      1.0000 0.81020  0.00000  0.81020  Biso   1.000  C
  C27      1.0000 0.87290  0.00000  0.87290  Biso   1.000  C
  C28      1.0000 0.90250  0.00000  0.90250  Biso   1.000  C
  C29      1.0000 0.77690  0.00000  0.22310  Biso   1.000  C
  C30      1.0000 0.81020  0.00000  0.18980  Biso   1.000  C
  C31      1.0000 0.87290  0.00000  0.12710  Biso   1.000  C
  C32      1.0000 0.90250  0.00000  0.09750  Biso   1.000  C
  C33      1.0000 0.77690  0.22310  0.00000  Biso   1.000  C
  C34      1.0000 0.81020  0.18980  0.00000  Biso   1.000  C
  C35      1.0000 0.87290  0.12710  0.00000  Biso   1.000  C
  C36      1.0000 0.90250  0.09750  0.00000  Biso   1.000  C
  C37      1.0000 0.22310  0.22310  0.00000  Biso   1.000  C
  C38      1.0000 0.18980  0.18980  0.00000  Biso   1.000  C
  C39      1.0000 0.12710  0.12710  0.00000  Biso   1.000  C
  C40      1.0000 0.09750  0.09750  0.00000  Biso   1.000  C
  C41      1.0000 0.77690  0.77690  0.00000  Biso   1.000  C
  C42      1.0000 0.81020  0.81020  0.00000  Biso   1.000  C
  C43      1.0000 0.87290  0.87290  0.00000  Biso   1.000  C
  C44      1.0000 0.90250  0.90250  0.00000  Biso   1.000  C
  C45      1.0000 0.22310  0.77690  0.00000  Biso   1.000  C
  C46      1.0000 0.18980  0.81020  0.00000  Biso   1.000  C
  C47      1.0000 0.12710  0.87290  0.00000  Biso   1.000  C
  C48      1.0000 0.09750  0.90250  0.00000  Biso   1.000  C
  Zr1      1.0000 0.00000  0.00000  0.07572  Biso   1.000  Zr
  Zr2      1.0000 0.00000  0.00000  0.92428  Biso   1.000  Zr
  Zr3      1.0000 0.07572  0.00000  0.00000  Biso   1.000  Zr
  Zr4      1.0000 0.92428  0.00000  0.00000  Biso   1.000  Zr
  Zr5      1.0000 0.00000  0.07572  0.00000  Biso   1.000  Zr
  Zr6      1.0000 0.00000  0.92428  0.00000  Biso   1.000  Zr
  O1       1.0000 0.03700  0.03700  0.03700  Biso   1.000  O
  O2       1.0000 0.96300  0.96300  0.03700  Biso   1.000  O
  O3       1.0000 0.96300  0.03700  0.96300  Biso   1.000  O
  O4       1.0000 0.03700  0.96300  0.96300  Biso   1.000  O
  O5       1.0000 0.03700  0.03700  0.96300  Biso   1.000  O
  O6       1.0000 0.96300  0.96300  0.96300  Biso   1.000  O
  O7       1.0000 0.03700  0.96300  0.03700  Biso   1.000  O
  O8       1.0000 0.96300  0.03700  0.03700  Biso   1.000  O
  O9       1.0000 0.00000  0.94130  0.11060  Biso   1.000  O
  C49      1.0000 0.00000  0.85410  0.19720  Biso   1.000  C
  H1       1.0000 0.00000  0.86210  0.22470  Biso   1.000  H
  C50      1.0000 0.00000  0.88370  0.17020  Biso   1.000  C
  H2       1.0000 0.00000  0.91110  0.17850  Biso   1.000  H
  O10      1.0000 0.00000  0.05870  0.11060  Biso   1.000  O
  C51      1.0000 0.00000  0.14590  0.19720  Biso   1.000  C
  H3       1.0000 0.00000  0.13790  0.22470  Biso   1.000  H
  C52      1.0000 0.00000  0.11630  0.17020  Biso   1.000  C
  H4       1.0000 0.00000  0.08890  0.17850  Biso   1.000  H
  O11      1.0000 0.00000  0.94130  0.88940  Biso   1.000  O
  C53      1.0000 0.00000  0.85410  0.80280  Biso   1.000  C
  H5       1.0000 0.00000  0.86210  0.77530  Biso   1.000  H
  C54      1.0000 0.00000  0.88370  0.82980  Biso   1.000  C
  H6       1.0000 0.00000  0.91110  0.82150  Biso   1.000  H
  O12      1.0000 0.00000  0.05870  0.88940  Biso   1.000  O
  C55      1.0000 0.00000  0.14590  0.80280  Biso   1.000  C
  H7       1.0000 0.00000  0.13790  0.77530  Biso   1.000  H
  C56      1.0000 0.00000  0.11630  0.82980  Biso   1.000  C
  H8       1.0000 0.00000  0.08890  0.82150  Biso   1.000  H
  O13      1.0000 0.11060  0.00000  0.94130  Biso   1.000  O
  C57      1.0000 0.19720  0.00000  0.85410  Biso   1.000  C
  H9       1.0000 0.22470  0.00000  0.86210  Biso   1.000  H
  C58      1.0000 0.17020  0.00000  0.88370  Biso   1.000  C
  H10      1.0000 0.17850  0.00000  0.91110  Biso   1.000  H
  O14      1.0000 0.11060  0.00000  0.05870  Biso   1.000  O
  C59      1.0000 0.19720  0.00000  0.14590  Biso   1.000  C
  H11      1.0000 0.22470  0.00000  0.13790  Biso   1.000  H
  C60      1.0000 0.17020  0.00000  0.11630  Biso   1.000  C
  H12      1.0000 0.17850  0.00000  0.08890  Biso   1.000  H
  O15      1.0000 0.88940  0.00000  0.94130  Biso   1.000  O
  C61      1.0000 0.80280  0.00000  0.85410  Biso   1.000  C
  H13      1.0000 0.77530  0.00000  0.86210  Biso   1.000  H
  C62      1.0000 0.82980  0.00000  0.88370  Biso   1.000  C
  H14      1.0000 0.82150  0.00000  0.91110  Biso   1.000  H
  O16      1.0000 0.88940  0.00000  0.05870  Biso   1.000  O
  C63      1.0000 0.80280  0.00000  0.14590  Biso   1.000  C
  H15      1.0000 0.77530  0.00000  0.13790  Biso   1.000  H
  C64      1.0000 0.82980  0.00000  0.11630  Biso   1.000  C
  H16      1.0000 0.82150  0.00000  0.08890  Biso   1.000  H
  O17      1.0000 0.94130  0.11060  0.00000  Biso   1.000  O
  C65      1.0000 0.85410  0.19720  0.00000  Biso   1.000  C
  H17      1.0000 0.86210  0.22470  0.00000  Biso   1.000  H
  C66      1.0000 0.88370  0.17020  0.00000  Biso   1.000  C
  H18      1.0000 0.91110  0.17850  0.00000  Biso   1.000  H
  O18      1.0000 0.05870  0.11060  0.00000  Biso   1.000  O
  C67      1.0000 0.14590  0.19720  0.00000  Biso   1.000  C
  H19      1.0000 0.13790  0.22470  0.00000  Biso   1.000  H
  C68      1.0000 0.11630  0.17020  0.00000  Biso   1.000  C
  H20      1.0000 0.08890  0.17850  0.00000  Biso   1.000  H
  O19      1.0000 0.94130  0.88940  0.00000  Biso   1.000  O
  C69      1.0000 0.85410  0.80280  0.00000  Biso   1.000  C
  H21      1.0000 0.86210  0.77530  0.00000  Biso   1.000  H
  C70      1.0000 0.88370  0.82980  0.00000  Biso   1.000  C
  H22      1.0000 0.91110  0.82150  0.00000  Biso   1.000  H
  O20      1.0000 0.05870  0.88940  0.00000  Biso   1.000  O
  C71      1.0000 0.14590  0.80280  0.00000  Biso   1.000  C
  H23      1.0000 0.13790  0.77530  0.00000  Biso   1.000  H
  C72      1.0000 0.11630  0.82980  0.00000  Biso   1.000  C
  H24      1.0000 0.08890  0.82150  0.00000  Biso   1.000  H
  O21      1.0000 0.94130  0.00000  0.88940  Biso   1.000  O
  C73      1.0000 0.85410  0.00000  0.80280  Biso   1.000  C
  H25      1.0000 0.86210  0.00000  0.77530  Biso   1.000  H
  C74      1.0000 0.88370  0.00000  0.82980  Biso   1.000  C
  H26      1.0000 0.91110  0.00000  0.82150  Biso   1.000  H
  O22      1.0000 0.05870  0.00000  0.88940  Biso   1.000  O
  C75      1.0000 0.14590  0.00000  0.80280  Biso   1.000  C
  H27      1.0000 0.13790  0.00000  0.77530  Biso   1.000  H
  C76      1.0000 0.11630  0.00000  0.82980  Biso   1.000  C
  H28      1.0000 0.08890  0.00000  0.82150  Biso   1.000  H
  O23      1.0000 0.94130  0.00000  0.11060  Biso   1.000  O
  C77      1.0000 0.85410  0.00000  0.19720  Biso   1.000  C
  H29      1.0000 0.86210  0.00000  0.22470  Biso   1.000  H
  C78      1.0000 0.88370  0.00000  0.17020  Biso   1.000  C
  H30      1.0000 0.91110  0.00000  0.17850  Biso   1.000  H
  O24      1.0000 0.05870  0.00000  0.11060  Biso   1.000  O
  C79      1.0000 0.14590  0.00000  0.19720  Biso   1.000  C
  H31      1.0000 0.13790  0.00000  0.22470  Biso   1.000  H
  C80      1.0000 0.11630  0.00000  0.17020  Biso   1.000  C
  H32      1.0000 0.08890  0.00000  0.17850  Biso   1.000  H
  O25      1.0000 0.00000  0.11060  0.05870  Biso   1.000  O
  C81      1.0000 0.00000  0.19720  0.14590  Biso   1.000  C
  H33      1.0000 0.00000  0.22470  0.13790  Biso   1.000  H
  C82      1.0000 0.00000  0.17020  0.11630  Biso   1.000  C
  H34      1.0000 0.00000  0.17850  0.08890  Biso   1.000  H
  O26      1.0000 0.00000  0.11060  0.94130  Biso   1.000  O
  C83      1.0000 0.00000  0.19720  0.85410  Biso   1.000  C
  H35      1.0000 0.00000  0.22470  0.86210  Biso   1.000  H
  C84      1.0000 0.00000  0.17020  0.88370  Biso   1.000  C
  H36      1.0000 0.00000  0.17850  0.91110  Biso   1.000  H
  O27      1.0000 0.00000  0.88940  0.05870  Biso   1.000  O
  C85      1.0000 0.00000  0.80280  0.14590  Biso   1.000  C
  H37      1.0000 0.00000  0.77530  0.13790  Biso   1.000  H
  C86      1.0000 0.00000  0.82980  0.11630  Biso   1.000  C
  H38      1.0000 0.00000  0.82150  0.08890  Biso   1.000  H
  O28      1.0000 0.00000  0.88940  0.94130  Biso   1.000  O
  C87      1.0000 0.00000  0.80280  0.85410  Biso   1.000  C
  H39      1.0000 0.00000  0.77530  0.86210  Biso   1.000  H
  C88      1.0000 0.00000  0.82980  0.88370  Biso   1.000  C
  H40      1.0000 0.00000  0.82150  0.91110  Biso   1.000  H
  O29      1.0000 0.11060  0.94130  0.00000  Biso   1.000  O
  C89      1.0000 0.19720  0.85410  0.00000  Biso   1.000  C
  H41      1.0000 0.22470  0.86210  0.00000  Biso   1.000  H
  C90      1.0000 0.17020  0.88370  0.00000  Biso   1.000  C
  H42      1.0000 0.17850  0.91110  0.00000  Biso   1.000  H
  O30      1.0000 0.11060  0.05870  0.00000  Biso   1.000  O
  C91      1.0000 0.19720  0.14590  0.00000  Biso   1.000  C
  H43      1.0000 0.22470  0.13790  0.00000  Biso   1.000  H
  C92      1.0000 0.17020  0.11630  0.00000  Biso   1.000  C
  H44      1.0000 0.17850  0.08890  0.00000  Biso   1.000  H
  O31      1.0000 0.88940  0.94130  0.00000  Biso   1.000  O
  C93      1.0000 0.80280  0.85410  0.00000  Biso   1.000  C
  H45      1.0000 0.77530  0.86210  0.00000  Biso   1.000  H
  C94      1.0000 0.82980  0.88370  0.00000  Biso   1.000  C
  H46      1.0000 0.82150  0.91110  0.00000  Biso   1.000  H
  O32      1.0000 0.88940  0.05870  0.00000  Biso   1.000  O
  C95      1.0000 0.80280  0.14590  0.00000  Biso   1.000  C
  H47      1.0000 0.77530  0.13790  0.00000  Biso   1.000  H
  C96      1.0000 0.82980  0.11630  0.00000  Biso   1.000  C
  H48      1.0000 0.82150  0.08890  0.00000  Biso   1.000  H
  C97      1.0000 0.00000  0.27690  0.72310  Biso   1.000  C
  C98      1.0000 0.00000  0.31020  0.68980  Biso   1.000  C
  C99      1.0000 0.00000  0.37290  0.62710  Biso   1.000  C
  C100     1.0000 0.00000  0.40250  0.59750  Biso   1.000  C
  C101     1.0000 0.00000  0.72310  0.72310  Biso   1.000  C
  C102     1.0000 0.00000  0.68980  0.68980  Biso   1.000  C
  C103     1.0000 0.00000  0.62710  0.62710  Biso   1.000  C
  C104     1.0000 0.00000  0.59750  0.59750  Biso   1.000  C
  C105     1.0000 0.00000  0.27690  0.27690  Biso   1.000  C
  C106     1.0000 0.00000  0.31020  0.31020  Biso   1.000  C
  C107     1.0000 0.00000  0.37290  0.37290  Biso   1.000  C
  C108     1.0000 0.00000  0.40250  0.40250  Biso   1.000  C
  C109     1.0000 0.00000  0.72310  0.27690  Biso   1.000  C
  C110     1.0000 0.00000  0.68980  0.31020  Biso   1.000  C
  C111     1.0000 0.00000  0.62710  0.37290  Biso   1.000  C
  C112     1.0000 0.00000  0.59750  0.40250  Biso   1.000  C
  C113     1.0000 0.22310  0.50000  0.27690  Biso   1.000  C
  C114     1.0000 0.18980  0.50000  0.31020  Biso   1.000  C
  C115     1.0000 0.12710  0.50000  0.37290  Biso   1.000  C
  C116     1.0000 0.09750  0.50000  0.40250  Biso   1.000  C
  C117     1.0000 0.22310  0.50000  0.72310  Biso   1.000  C
  C118     1.0000 0.18980  0.50000  0.68980  Biso   1.000  C
  C119     1.0000 0.12710  0.50000  0.62710  Biso   1.000  C
  C120     1.0000 0.09750  0.50000  0.59750  Biso   1.000  C
  C121     1.0000 0.77690  0.50000  0.27690  Biso   1.000  C
  C122     1.0000 0.81020  0.50000  0.31020  Biso   1.000  C
  C123     1.0000 0.87290  0.50000  0.37290  Biso   1.000  C
  C124     1.0000 0.90250  0.50000  0.40250  Biso   1.000  C
  C125     1.0000 0.77690  0.50000  0.72310  Biso   1.000  C
  C126     1.0000 0.81020  0.50000  0.68980  Biso   1.000  C
  C127     1.0000 0.87290  0.50000  0.62710  Biso   1.000  C
  C128     1.0000 0.90250  0.50000  0.59750  Biso   1.000  C
  C129     1.0000 0.77690  0.72310  0.50000  Biso   1.000  C
  C130     1.0000 0.81020  0.68980  0.50000  Biso   1.000  C
  C131     1.0000 0.87290  0.62710  0.50000  Biso   1.000  C
  C132     1.0000 0.90250  0.59750  0.50000  Biso   1.000  C
  C133     1.0000 0.22310  0.72310  0.50000  Biso   1.000  C
  C134     1.0000 0.18980  0.68980  0.50000  Biso   1.000  C
  C135     1.0000 0.12710  0.62710  0.50000  Biso   1.000  C
  C136     1.0000 0.09750  0.59750  0.50000  Biso   1.000  C
  C137     1.0000 0.77690  0.27690  0.50000  Biso   1.000  C
  C138     1.0000 0.81020  0.31020  0.50000  Biso   1.000  C
  C139     1.0000 0.87290  0.37290  0.50000  Biso   1.000  C
  C140     1.0000 0.90250  0.40250  0.50000  Biso   1.000  C
  C141     1.0000 0.22310  0.27690  0.50000  Biso   1.000  C
  C142     1.0000 0.18980  0.31020  0.50000  Biso   1.000  C
  C143     1.0000 0.12710  0.37290  0.50000  Biso   1.000  C
  C144     1.0000 0.09750  0.40250  0.50000  Biso   1.000  C
  Zr7      1.0000 0.00000  0.50000  0.57572  Biso   1.000  Zr
  Zr8      1.0000 0.00000  0.50000  0.42428  Biso   1.000  Zr
  Zr9      1.0000 0.07572  0.50000  0.50000  Biso   1.000  Zr
  Zr10     1.0000 0.92428  0.50000  0.50000  Biso   1.000  Zr
  Zr11     1.0000 0.00000  0.57572  0.50000  Biso   1.000  Zr
  Zr12     1.0000 0.00000  0.42428  0.50000  Biso   1.000  Zr
  O33      1.0000 0.03700  0.53700  0.53700  Biso   1.000  O
  O34      1.0000 0.96300  0.46300  0.53700  Biso   1.000  O
  O35      1.0000 0.96300  0.53700  0.46300  Biso   1.000  O
  O36      1.0000 0.03700  0.46300  0.46300  Biso   1.000  O
  O37      1.0000 0.03700  0.53700  0.46300  Biso   1.000  O
  O38      1.0000 0.96300  0.46300  0.46300  Biso   1.000  O
  O39      1.0000 0.03700  0.46300  0.53700  Biso   1.000  O
  O40      1.0000 0.96300  0.53700  0.53700  Biso   1.000  O
  O41      1.0000 0.00000  0.44130  0.61060  Biso   1.000  O
  C145     1.0000 0.00000  0.35410  0.69720  Biso   1.000  C
  H49      1.0000 0.00000  0.36210  0.72470  Biso   1.000  H
  C146     1.0000 0.00000  0.38370  0.67020  Biso   1.000  C
  H50      1.0000 0.00000  0.41110  0.67850  Biso   1.000  H
  O42      1.0000 0.00000  0.55870  0.61060  Biso   1.000  O
  C147     1.0000 0.00000  0.64590  0.69720  Biso   1.000  C
  H51      1.0000 0.00000  0.63790  0.72470  Biso   1.000  H
  C148     1.0000 0.00000  0.61630  0.67020  Biso   1.000  C
  H52      1.0000 0.00000  0.58890  0.67850  Biso   1.000  H
  O43      1.0000 0.00000  0.44130  0.38940  Biso   1.000  O
  C149     1.0000 0.00000  0.35410  0.30280  Biso   1.000  C
  H53      1.0000 0.00000  0.36210  0.27530  Biso   1.000  H
  C150     1.0000 0.00000  0.38370  0.32980  Biso   1.000  C
  H54      1.0000 0.00000  0.41110  0.32150  Biso   1.000  H
  O44      1.0000 0.00000  0.55870  0.38940  Biso   1.000  O
  C151     1.0000 0.00000  0.64590  0.30280  Biso   1.000  C
  H55      1.0000 0.00000  0.63790  0.27530  Biso   1.000  H
  C152     1.0000 0.00000  0.61630  0.32980  Biso   1.000  C
  H56      1.0000 0.00000  0.58890  0.32150  Biso   1.000  H
  O45      1.0000 0.11060  0.50000  0.44130  Biso   1.000  O
  C153     1.0000 0.19720  0.50000  0.35410  Biso   1.000  C
  H57      1.0000 0.22470  0.50000  0.36210  Biso   1.000  H
  C154     1.0000 0.17020  0.50000  0.38370  Biso   1.000  C
  H58      1.0000 0.17850  0.50000  0.41110  Biso   1.000  H
  O46      1.0000 0.11060  0.50000  0.55870  Biso   1.000  O
  C155     1.0000 0.19720  0.50000  0.64590  Biso   1.000  C
  H59      1.0000 0.22470  0.50000  0.63790  Biso   1.000  H
  C156     1.0000 0.17020  0.50000  0.61630  Biso   1.000  C
  H60      1.0000 0.17850  0.50000  0.58890  Biso   1.000  H
  O47      1.0000 0.88940  0.50000  0.44130  Biso   1.000  O
  C157     1.0000 0.80280  0.50000  0.35410  Biso   1.000  C
  H61      1.0000 0.77530  0.50000  0.36210  Biso   1.000  H
  C158     1.0000 0.82980  0.50000  0.38370  Biso   1.000  C
  H62      1.0000 0.82150  0.50000  0.41110  Biso   1.000  H
  O48      1.0000 0.88940  0.50000  0.55870  Biso   1.000  O
  C159     1.0000 0.80280  0.50000  0.64590  Biso   1.000  C
  H63      1.0000 0.77530  0.50000  0.63790  Biso   1.000  H
  C160     1.0000 0.82980  0.50000  0.61630  Biso   1.000  C
  H64      1.0000 0.82150  0.50000  0.58890  Biso   1.000  H
  O49      1.0000 0.94130  0.61060  0.50000  Biso   1.000  O
  C161     1.0000 0.85410  0.69720  0.50000  Biso   1.000  C
  H65      1.0000 0.86210  0.72470  0.50000  Biso   1.000  H
  C162     1.0000 0.88370  0.67020  0.50000  Biso   1.000  C
  H66      1.0000 0.91110  0.67850  0.50000  Biso   1.000  H
  O50      1.0000 0.05870  0.61060  0.50000  Biso   1.000  O
  C163     1.0000 0.14590  0.69720  0.50000  Biso   1.000  C
  H67      1.0000 0.13790  0.72470  0.50000  Biso   1.000  H
  C164     1.0000 0.11630  0.67020  0.50000  Biso   1.000  C
  H68      1.0000 0.08890  0.67850  0.50000  Biso   1.000  H
  O51      1.0000 0.94130  0.38940  0.50000  Biso   1.000  O
  C165     1.0000 0.85410  0.30280  0.50000  Biso   1.000  C
  H69      1.0000 0.86210  0.27530  0.50000  Biso   1.000  H
  C166     1.0000 0.88370  0.32980  0.50000  Biso   1.000  C
  H70      1.0000 0.91110  0.32150  0.50000  Biso   1.000  H
  O52      1.0000 0.05870  0.38940  0.50000  Biso   1.000  O
  C167     1.0000 0.14590  0.30280  0.50000  Biso   1.000  C
  H71      1.0000 0.13790  0.27530  0.50000  Biso   1.000  H
  C168     1.0000 0.11630  0.32980  0.50000  Biso   1.000  C
  H72      1.0000 0.08890  0.32150  0.50000  Biso   1.000  H
  O53      1.0000 0.94130  0.50000  0.38940  Biso   1.000  O
  C169     1.0000 0.85410  0.50000  0.30280  Biso   1.000  C
  H73      1.0000 0.86210  0.50000  0.27530  Biso   1.000  H
  C170     1.0000 0.88370  0.50000  0.32980  Biso   1.000  C
  H74      1.0000 0.91110  0.50000  0.32150  Biso   1.000  H
  O54      1.0000 0.05870  0.50000  0.38940  Biso   1.000  O
  C171     1.0000 0.14590  0.50000  0.30280  Biso   1.000  C
  H75      1.0000 0.13790  0.50000  0.27530  Biso   1.000  H
  C172     1.0000 0.11630  0.50000  0.32980  Biso   1.000  C
  H76      1.0000 0.08890  0.50000  0.32150  Biso   1.000  H
  O55      1.0000 0.94130  0.50000  0.61060  Biso   1.000  O
  C173     1.0000 0.85410  0.50000  0.69720  Biso   1.000  C
  H77      1.0000 0.86210  0.50000  0.72470  Biso   1.000  H
  C174     1.0000 0.88370  0.50000  0.67020  Biso   1.000  C
  H78      1.0000 0.91110  0.50000  0.67850  Biso   1.000  H
  O56      1.0000 0.05870  0.50000  0.61060  Biso   1.000  O
  C175     1.0000 0.14590  0.50000  0.69720  Biso   1.000  C
  H79      1.0000 0.13790  0.50000  0.72470  Biso   1.000  H
  C176     1.0000 0.11630  0.50000  0.67020  Biso   1.000  C
  H80      1.0000 0.08890  0.50000  0.67850  Biso   1.000  H
  O57      1.0000 0.00000  0.61060  0.55870  Biso   1.000  O
  C177     1.0000 0.00000  0.69720  0.64590  Biso   1.000  C
  H81      1.0000 0.00000  0.72470  0.63790  Biso   1.000  H
  C178     1.0000 0.00000  0.67020  0.61630  Biso   1.000  C
  H82      1.0000 0.00000  0.67850  0.58890  Biso   1.000  H
  O58      1.0000 0.00000  0.61060  0.44130  Biso   1.000  O
  C179     1.0000 0.00000  0.69720  0.35410  Biso   1.000  C
  H83      1.0000 0.00000  0.72470  0.36210  Biso   1.000  H
  C180     1.0000 0.00000  0.67020  0.38370  Biso   1.000  C
  H84      1.0000 0.00000  0.67850  0.41110  Biso   1.000  H
  O59      1.0000 0.00000  0.38940  0.55870  Biso   1.000  O
  C181     1.0000 0.00000  0.30280  0.64590  Biso   1.000  C
  H85      1.0000 0.00000  0.27530  0.63790  Biso   1.000  H
  C182     1.0000 0.00000  0.32980  0.61630  Biso   1.000  C
  H86      1.0000 0.00000  0.32150  0.58890  Biso   1.000  H
  O60      1.0000 0.00000  0.38940  0.44130  Biso   1.000  O
  C183     1.0000 0.00000  0.30280  0.35410  Biso   1.000  C
  H87      1.0000 0.00000  0.27530  0.36210  Biso   1.000  H
  C184     1.0000 0.00000  0.32980  0.38370  Biso   1.000  C
  H88      1.0000 0.00000  0.32150  0.41110  Biso   1.000  H
  O61      1.0000 0.11060  0.44130  0.50000  Biso   1.000  O
  C185     1.0000 0.19720  0.35410  0.50000  Biso   1.000  C
  H89      1.0000 0.22470  0.36210  0.50000  Biso   1.000  H
  C186     1.0000 0.17020  0.38370  0.50000  Biso   1.000  C
  H90      1.0000 0.17850  0.41110  0.50000  Biso   1.000  H
  O62      1.0000 0.11060  0.55870  0.50000  Biso   1.000  O
  C187     1.0000 0.19720  0.64590  0.50000  Biso   1.000  C
  H91      1.0000 0.22470  0.63790  0.50000  Biso   1.000  H
  C188     1.0000 0.17020  0.61630  0.50000  Biso   1.000  C
  H92      1.0000 0.17850  0.58890  0.50000  Biso   1.000  H
  O63      1.0000 0.88940  0.44130  0.50000  Biso   1.000  O
  C189     1.0000 0.80280  0.35410  0.50000  Biso   1.000  C
  H93      1.0000 0.77530  0.36210  0.50000  Biso   1.000  H
  C190     1.0000 0.82980  0.38370  0.50000  Biso   1.000  C
  H94      1.0000 0.82150  0.41110  0.50000  Biso   1.000  H
  O64      1.0000 0.88940  0.55870  0.50000  Biso   1.000  O
  C191     1.0000 0.80280  0.64590  0.50000  Biso   1.000  C
  H95      1.0000 0.77530  0.63790  0.50000  Biso   1.000  H
  C192     1.0000 0.82980  0.61630  0.50000  Biso   1.000  C
  H96      1.0000 0.82150  0.58890  0.50000  Biso   1.000  H
  C193     1.0000 0.50000  0.77690  0.72310  Biso   1.000  C
  C194     1.0000 0.50000  0.81020  0.68980  Biso   1.000  C
  C195     1.0000 0.50000  0.87290  0.62710  Biso   1.000  C
  C196     1.0000 0.50000  0.90250  0.59750  Biso   1.000  C
  C197     1.0000 0.50000  0.22310  0.72310  Biso   1.000  C
  C198     1.0000 0.50000  0.18980  0.68980  Biso   1.000  C
  C199     1.0000 0.50000  0.12710  0.62710  Biso   1.000  C
  C200     1.0000 0.50000  0.09750  0.59750  Biso   1.000  C
  C201     1.0000 0.50000  0.77690  0.27690  Biso   1.000  C
  C202     1.0000 0.50000  0.81020  0.31020  Biso   1.000  C
  C203     1.0000 0.50000  0.87290  0.37290  Biso   1.000  C
  C204     1.0000 0.50000  0.90250  0.40250  Biso   1.000  C
  C205     1.0000 0.50000  0.22310  0.27690  Biso   1.000  C
  C206     1.0000 0.50000  0.18980  0.31020  Biso   1.000  C
  C207     1.0000 0.50000  0.12710  0.37290  Biso   1.000  C
  C208     1.0000 0.50000  0.09750  0.40250  Biso   1.000  C
  C209     1.0000 0.72310  0.00000  0.27690  Biso   1.000  C
  C210     1.0000 0.68980  0.00000  0.31020  Biso   1.000  C
  C211     1.0000 0.62710  0.00000  0.37290  Biso   1.000  C
  C212     1.0000 0.59750  0.00000  0.40250  Biso   1.000  C
  C213     1.0000 0.72310  0.00000  0.72310  Biso   1.000  C
  C214     1.0000 0.68980  0.00000  0.68980  Biso   1.000  C
  C215     1.0000 0.62710  0.00000  0.62710  Biso   1.000  C
  C216     1.0000 0.59750  0.00000  0.59750  Biso   1.000  C
  C217     1.0000 0.27690  0.00000  0.27690  Biso   1.000  C
  C218     1.0000 0.31020  0.00000  0.31020  Biso   1.000  C
  C219     1.0000 0.37290  0.00000  0.37290  Biso   1.000  C
  C220     1.0000 0.40250  0.00000  0.40250  Biso   1.000  C
  C221     1.0000 0.27690  0.00000  0.72310  Biso   1.000  C
  C222     1.0000 0.31020  0.00000  0.68980  Biso   1.000  C
  C223     1.0000 0.37290  0.00000  0.62710  Biso   1.000  C
  C224     1.0000 0.40250  0.00000  0.59750  Biso   1.000  C
  C225     1.0000 0.27690  0.22310  0.50000  Biso   1.000  C
  C226     1.0000 0.31020  0.18980  0.50000  Biso   1.000  C
  C227     1.0000 0.37290  0.12710  0.50000  Biso   1.000  C
  C228     1.0000 0.40250  0.09750  0.50000  Biso   1.000  C
  C229     1.0000 0.72310  0.22310  0.50000  Biso   1.000  C
  C230     1.0000 0.68980  0.18980  0.50000  Biso   1.000  C
  C231     1.0000 0.62710  0.12710  0.50000  Biso   1.000  C
  C232     1.0000 0.59750  0.09750  0.50000  Biso   1.000  C
  C233     1.0000 0.27690  0.77690  0.50000  Biso   1.000  C
  C234     1.0000 0.31020  0.81020  0.50000  Biso   1.000  C
  C235     1.0000 0.37290  0.87290  0.50000  Biso   1.000  C
  C236     1.0000 0.40250  0.90250  0.50000  Biso   1.000  C
  C237     1.0000 0.72310  0.77690  0.50000  Biso   1.000  C
  C238     1.0000 0.68980  0.81020  0.50000  Biso   1.000  C
  C239     1.0000 0.62710  0.87290  0.50000  Biso   1.000  C
  C240     1.0000 0.59750  0.90250  0.50000  Biso   1.000  C
  Zr13     1.0000 0.50000  0.00000  0.57572  Biso   1.000  Zr
  Zr14     1.0000 0.50000  0.00000  0.42428  Biso   1.000  Zr
  Zr15     1.0000 0.57572  0.00000  0.50000  Biso   1.000  Zr
  Zr16     1.0000 0.42428  0.00000  0.50000  Biso   1.000  Zr
  Zr17     1.0000 0.50000  0.07572  0.50000  Biso   1.000  Zr
  Zr18     1.0000 0.50000  0.92428  0.50000  Biso   1.000  Zr
  O65      1.0000 0.53700  0.03700  0.53700  Biso   1.000  O
  O66      1.0000 0.46300  0.96300  0.53700  Biso   1.000  O
  O67      1.0000 0.46300  0.03700  0.46300  Biso   1.000  O
  O68      1.0000 0.53700  0.96300  0.46300  Biso   1.000  O
  O69      1.0000 0.53700  0.03700  0.46300  Biso   1.000  O
  O70      1.0000 0.46300  0.96300  0.46300  Biso   1.000  O
  O71      1.0000 0.53700  0.96300  0.53700  Biso   1.000  O
  O72      1.0000 0.46300  0.03700  0.53700  Biso   1.000  O
  O73      1.0000 0.50000  0.94130  0.61060  Biso   1.000  O
  C241     1.0000 0.50000  0.85410  0.69720  Biso   1.000  C
  H97      1.0000 0.50000  0.86210  0.72470  Biso   1.000  H
  C242     1.0000 0.50000  0.88370  0.67020  Biso   1.000  C
  H98      1.0000 0.50000  0.91110  0.67850  Biso   1.000  H
  O74      1.0000 0.50000  0.05870  0.61060  Biso   1.000  O
  C243     1.0000 0.50000  0.14590  0.69720  Biso   1.000  C
  H99      1.0000 0.50000  0.13790  0.72470  Biso   1.000  H
  C244     1.0000 0.50000  0.11630  0.67020  Biso   1.000  C
  H100     1.0000 0.50000  0.08890  0.67850  Biso   1.000  H
  O75      1.0000 0.50000  0.94130  0.38940  Biso   1.000  O
  C245     1.0000 0.50000  0.85410  0.30280  Biso   1.000  C
  H101     1.0000 0.50000  0.86210  0.27530  Biso   1.000  H
  C246     1.0000 0.50000  0.88370  0.32980  Biso   1.000  C
  H102     1.0000 0.50000  0.91110  0.32150  Biso   1.000  H
  O76      1.0000 0.50000  0.05870  0.38940  Biso   1.000  O
  C247     1.0000 0.50000  0.14590  0.30280  Biso   1.000  C
  H103     1.0000 0.50000  0.13790  0.27530  Biso   1.000  H
  C248     1.0000 0.50000  0.11630  0.32980  Biso   1.000  C
  H104     1.0000 0.50000  0.08890  0.32150  Biso   1.000  H
  O77      1.0000 0.61060  0.00000  0.44130  Biso   1.000  O
  C249     1.0000 0.69720  0.00000  0.35410  Biso   1.000  C
  H105     1.0000 0.72470  0.00000  0.36210  Biso   1.000  H
  C250     1.0000 0.67020  0.00000  0.38370  Biso   1.000  C
  H106     1.0000 0.67850  0.00000  0.41110  Biso   1.000  H
  O78      1.0000 0.61060  0.00000  0.55870  Biso   1.000  O
  C251     1.0000 0.69720  0.00000  0.64590  Biso   1.000  C
  H107     1.0000 0.72470  0.00000  0.63790  Biso   1.000  H
  C252     1.0000 0.67020  0.00000  0.61630  Biso   1.000  C
  H108     1.0000 0.67850  0.00000  0.58890  Biso   1.000  H
  O79      1.0000 0.38940  0.00000  0.44130  Biso   1.000  O
  C253     1.0000 0.30280  0.00000  0.35410  Biso   1.000  C
  H109     1.0000 0.27530  0.00000  0.36210  Biso   1.000  H
  C254     1.0000 0.32980  0.00000  0.38370  Biso   1.000  C
  H110     1.0000 0.32150  0.00000  0.41110  Biso   1.000  H
  O80      1.0000 0.38940  0.00000  0.55870  Biso   1.000  O
  C255     1.0000 0.30280  0.00000  0.64590  Biso   1.000  C
  H111     1.0000 0.27530  0.00000  0.63790  Biso   1.000  H
  C256     1.0000 0.32980  0.00000  0.61630  Biso   1.000  C
  H112     1.0000 0.32150  0.00000  0.58890  Biso   1.000  H
  O81      1.0000 0.44130  0.11060  0.50000  Biso   1.000  O
  C257     1.0000 0.35410  0.19720  0.50000  Biso   1.000  C
  H113     1.0000 0.36210  0.22470  0.50000  Biso   1.000  H
  C258     1.0000 0.38370  0.17020  0.50000  Biso   1.000  C
  H114     1.0000 0.41110  0.17850  0.50000  Biso   1.000  H
  O82      1.0000 0.55870  0.11060  0.50000  Biso   1.000  O
  C259     1.0000 0.64590  0.19720  0.50000  Biso   1.000  C
  H115     1.0000 0.63790  0.22470  0.50000  Biso   1.000  H
  C260     1.0000 0.61630  0.17020  0.50000  Biso   1.000  C
  H116     1.0000 0.58890  0.17850  0.50000  Biso   1.000  H
  O83      1.0000 0.44130  0.88940  0.50000  Biso   1.000  O
  C261     1.0000 0.35410  0.80280  0.50000  Biso   1.000  C
  H117     1.0000 0.36210  0.77530  0.50000  Biso   1.000  H
  C262     1.0000 0.38370  0.82980  0.50000  Biso   1.000  C
  H118     1.0000 0.41110  0.82150  0.50000  Biso   1.000  H
  O84      1.0000 0.55870  0.88940  0.50000  Biso   1.000  O
  C263     1.0000 0.64590  0.80280  0.50000  Biso   1.000  C
  H119     1.0000 0.63790  0.77530  0.50000  Biso   1.000  H
  C264     1.0000 0.61630  0.82980  0.50000  Biso   1.000  C
  H120     1.0000 0.58890  0.82150  0.50000  Biso   1.000  H
  O85      1.0000 0.44130  0.00000  0.38940  Biso   1.000  O
  C265     1.0000 0.35410  0.00000  0.30280  Biso   1.000  C
  H121     1.0000 0.36210  0.00000  0.27530  Biso   1.000  H
  C266     1.0000 0.38370  0.00000  0.32980  Biso   1.000  C
  H122     1.0000 0.41110  0.00000  0.32150  Biso   1.000  H
  O86      1.0000 0.55870  0.00000  0.38940  Biso   1.000  O
  C267     1.0000 0.64590  0.00000  0.30280  Biso   1.000  C
  H123     1.0000 0.63790  0.00000  0.27530  Biso   1.000  H
  C268     1.0000 0.61630  0.00000  0.32980  Biso   1.000  C
  H124     1.0000 0.58890  0.00000  0.32150  Biso   1.000  H
  O87      1.0000 0.44130  0.00000  0.61060  Biso   1.000  O
  C269     1.0000 0.35410  0.00000  0.69720  Biso   1.000  C
  H125     1.0000 0.36210  0.00000  0.72470  Biso   1.000  H
  C270     1.0000 0.38370  0.00000  0.67020  Biso   1.000  C
  H126     1.0000 0.41110  0.00000  0.67850  Biso   1.000  H
  O88      1.0000 0.55870  0.00000  0.61060  Biso   1.000  O
  C271     1.0000 0.64590  0.00000  0.69720  Biso   1.000  C
  H127     1.0000 0.63790  0.00000  0.72470  Biso   1.000  H
  C272     1.0000 0.61630  0.00000  0.67020  Biso   1.000  C
  H128     1.0000 0.58890  0.00000  0.67850  Biso   1.000  H
  O89      1.0000 0.50000  0.11060  0.55870  Biso   1.000  O
  C273     1.0000 0.50000  0.19720  0.64590  Biso   1.000  C
  H129     1.0000 0.50000  0.22470  0.63790  Biso   1.000  H
  C274     1.0000 0.50000  0.17020  0.61630  Biso   1.000  C
  H130     1.0000 0.50000  0.17850  0.58890  Biso   1.000  H
  O90      1.0000 0.50000  0.11060  0.44130  Biso   1.000  O
  C275     1.0000 0.50000  0.19720  0.35410  Biso   1.000  C
  H131     1.0000 0.50000  0.22470  0.36210  Biso   1.000  H
  C276     1.0000 0.50000  0.17020  0.38370  Biso   1.000  C
  H132     1.0000 0.50000  0.17850  0.41110  Biso   1.000  H
  O91      1.0000 0.50000  0.88940  0.55870  Biso   1.000  O
  C277     1.0000 0.50000  0.80280  0.64590  Biso   1.000  C
  H133     1.0000 0.50000  0.77530  0.63790  Biso   1.000  H
  C278     1.0000 0.50000  0.82980  0.61630  Biso   1.000  C
  H134     1.0000 0.50000  0.82150  0.58890  Biso   1.000  H
  O92      1.0000 0.50000  0.88940  0.44130  Biso   1.000  O
  C279     1.0000 0.50000  0.80280  0.35410  Biso   1.000  C
  H135     1.0000 0.50000  0.77530  0.36210  Biso   1.000  H
  C280     1.0000 0.50000  0.82980  0.38370  Biso   1.000  C
  H136     1.0000 0.50000  0.82150  0.41110  Biso   1.000  H
  O93      1.0000 0.61060  0.94130  0.50000  Biso   1.000  O
  C281     1.0000 0.69720  0.85410  0.50000  Biso   1.000  C
  H137     1.0000 0.72470  0.86210  0.50000  Biso   1.000  H
  C282     1.0000 0.67020  0.88370  0.50000  Biso   1.000  C
  H138     1.0000 0.67850  0.91110  0.50000  Biso   1.000  H
  O94      1.0000 0.61060  0.05870  0.50000  Biso   1.000  O
  C283     1.0000 0.69720  0.14590  0.50000  Biso   1.000  C
  H139     1.0000 0.72470  0.13790  0.50000  Biso   1.000  H
  C284     1.0000 0.67020  0.11630  0.50000  Biso   1.000  C
  H140     1.0000 0.67850  0.08890  0.50000  Biso   1.000  H
  O95      1.0000 0.38940  0.94130  0.50000  Biso   1.000  O
  C285     1.0000 0.30280  0.85410  0.50000  Biso   1.000  C
  H141     1.0000 0.27530  0.86210  0.50000  Biso   1.000  H
  C286     1.0000 0.32980  0.88370  0.50000  Biso   1.000  C
  H142     1.0000 0.32150  0.91110  0.50000  Biso   1.000  H
  O96      1.0000 0.38940  0.05870  0.50000  Biso   1.000  O
  C287     1.0000 0.30280  0.14590  0.50000  Biso   1.000  C
  H143     1.0000 0.27530  0.13790  0.50000  Biso   1.000  H
  C288     1.0000 0.32980  0.11630  0.50000  Biso   1.000  C
  H144     1.0000 0.32150  0.08890  0.50000  Biso   1.000  H
  C289     1.0000 0.50000  0.27690  0.22310  Biso   1.000  C
  C290     1.0000 0.50000  0.31020  0.18980  Biso   1.000  C
  C291     1.0000 0.50000  0.37290  0.12710  Biso   1.000  C
  C292     1.0000 0.50000  0.40250  0.09750  Biso   1.000  C
  C293     1.0000 0.50000  0.72310  0.22310  Biso   1.000  C
  C294     1.0000 0.50000  0.68980  0.18980  Biso   1.000  C
  C295     1.0000 0.50000  0.62710  0.12710  Biso   1.000  C
  C296     1.0000 0.50000  0.59750  0.09750  Biso   1.000  C
  C297     1.0000 0.50000  0.27690  0.77690  Biso   1.000  C
  C298     1.0000 0.50000  0.31020  0.81020  Biso   1.000  C
  C299     1.0000 0.50000  0.37290  0.87290  Biso   1.000  C
  C300     1.0000 0.50000  0.40250  0.90250  Biso   1.000  C
  C301     1.0000 0.50000  0.72310  0.77690  Biso   1.000  C
  C302     1.0000 0.50000  0.68980  0.81020  Biso   1.000  C
  C303     1.0000 0.50000  0.62710  0.87290  Biso   1.000  C
  C304     1.0000 0.50000  0.59750  0.90250  Biso   1.000  C
  C305     1.0000 0.72310  0.50000  0.77690  Biso   1.000  C
  C306     1.0000 0.68980  0.50000  0.81020  Biso   1.000  C
  C307     1.0000 0.62710  0.50000  0.87290  Biso   1.000  C
  C308     1.0000 0.59750  0.50000  0.90250  Biso   1.000  C
  C309     1.0000 0.72310  0.50000  0.22310  Biso   1.000  C
  C310     1.0000 0.68980  0.50000  0.18980  Biso   1.000  C
  C311     1.0000 0.62710  0.50000  0.12710  Biso   1.000  C
  C312     1.0000 0.59750  0.50000  0.09750  Biso   1.000  C
  C313     1.0000 0.27690  0.50000  0.77690  Biso   1.000  C
  C314     1.0000 0.31020  0.50000  0.81020  Biso   1.000  C
  C315     1.0000 0.37290  0.50000  0.87290  Biso   1.000  C
  C316     1.0000 0.40250  0.50000  0.90250  Biso   1.000  C
  C317     1.0000 0.27690  0.50000  0.22310  Biso   1.000  C
  C318     1.0000 0.31020  0.50000  0.18980  Biso   1.000  C
  C319     1.0000 0.37290  0.50000  0.12710  Biso   1.000  C
  C320     1.0000 0.40250  0.50000  0.09750  Biso   1.000  C
  C321     1.0000 0.27690  0.72310  0.00000  Biso   1.000  C
  C322     1.0000 0.31020  0.68980  0.00000  Biso   1.000  C
  C323     1.0000 0.37290  0.62710  0.00000  Biso   1.000  C
  C324     1.0000 0.40250  0.59750  0.00000  Biso   1.000  C
  C325     1.0000 0.72310  0.72310  0.00000  Biso   1.000  C
  C326     1.0000 0.68980  0.68980  0.00000  Biso   1.000  C
  C327     1.0000 0.62710  0.62710  0.00000  Biso   1.000  C
  C328     1.0000 0.59750  0.59750  0.00000  Biso   1.000  C
  C329     1.0000 0.27690  0.27690  0.00000  Biso   1.000  C
  C330     1.0000 0.31020  0.31020  0.00000  Biso   1.000  C
  C331     1.0000 0.37290  0.37290  0.00000  Biso   1.000  C
  C332     1.0000 0.40250  0.40250  0.00000  Biso   1.000  C
  C333     1.0000 0.72310  0.27690  0.00000  Biso   1.000  C
  C334     1.0000 0.68980  0.31020  0.00000  Biso   1.000  C
  C335     1.0000 0.62710  0.37290  0.00000  Biso   1.000  C
  C336     1.0000 0.59750  0.40250  0.00000  Biso   1.000  C
  Zr19     1.0000 0.50000  0.50000  0.07572  Biso   1.000  Zr
  Zr20     1.0000 0.50000  0.50000  0.92428  Biso   1.000  Zr
  Zr21     1.0000 0.57572  0.50000  0.00000  Biso   1.000  Zr
  Zr22     1.0000 0.42428  0.50000  0.00000  Biso   1.000  Zr
  Zr23     1.0000 0.50000  0.57572  0.00000  Biso   1.000  Zr
  Zr24     1.0000 0.50000  0.42428  0.00000  Biso   1.000  Zr
  O97      1.0000 0.53700  0.53700  0.03700  Biso   1.000  O
  O98      1.0000 0.46300  0.46300  0.03700  Biso   1.000  O
  O99      1.0000 0.46300  0.53700  0.96300  Biso   1.000  O
  O100     1.0000 0.53700  0.46300  0.96300  Biso   1.000  O
  O101     1.0000 0.53700  0.53700  0.96300  Biso   1.000  O
  O102     1.0000 0.46300  0.46300  0.96300  Biso   1.000  O
  O103     1.0000 0.53700  0.46300  0.03700  Biso   1.000  O
  O104     1.0000 0.46300  0.53700  0.03700  Biso   1.000  O
  O105     1.0000 0.50000  0.44130  0.11060  Biso   1.000  O
  C337     1.0000 0.50000  0.35410  0.19720  Biso   1.000  C
  H145     1.0000 0.50000  0.36210  0.22470  Biso   1.000  H
  C338     1.0000 0.50000  0.38370  0.17020  Biso   1.000  C
  H146     1.0000 0.50000  0.41110  0.17850  Biso   1.000  H
  O106     1.0000 0.50000  0.55870  0.11060  Biso   1.000  O
  C339     1.0000 0.50000  0.64590  0.19720  Biso   1.000  C
  H147     1.0000 0.50000  0.63790  0.22470  Biso   1.000  H
  C340     1.0000 0.50000  0.61630  0.17020  Biso   1.000  C
  H148     1.0000 0.50000  0.58890  0.17850  Biso   1.000  H
  O107     1.0000 0.50000  0.44130  0.88940  Biso   1.000  O
  C341     1.0000 0.50000  0.35410  0.80280  Biso   1.000  C
  H149     1.0000 0.50000  0.36210  0.77530  Biso   1.000  H
  C342     1.0000 0.50000  0.38370  0.82980  Biso   1.000  C
  H150     1.0000 0.50000  0.41110  0.82150  Biso   1.000  H
  O108     1.0000 0.50000  0.55870  0.88940  Biso   1.000  O
  C343     1.0000 0.50000  0.64590  0.80280  Biso   1.000  C
  H151     1.0000 0.50000  0.63790  0.77530  Biso   1.000  H
  C344     1.0000 0.50000  0.61630  0.82980  Biso   1.000  C
  H152     1.0000 0.50000  0.58890  0.82150  Biso   1.000  H
  O109     1.0000 0.61060  0.50000  0.94130  Biso   1.000  O
  C345     1.0000 0.69720  0.50000  0.85410  Biso   1.000  C
  H153     1.0000 0.72470  0.50000  0.86210  Biso   1.000  H
  C346     1.0000 0.67020  0.50000  0.88370  Biso   1.000  C
  H154     1.0000 0.67850  0.50000  0.91110  Biso   1.000  H
  O110     1.0000 0.61060  0.50000  0.05870  Biso   1.000  O
  C347     1.0000 0.69720  0.50000  0.14590  Biso   1.000  C
  H155     1.0000 0.72470  0.50000  0.13790  Biso   1.000  H
  C348     1.0000 0.67020  0.50000  0.11630  Biso   1.000  C
  H156     1.0000 0.67850  0.50000  0.08890  Biso   1.000  H
  O111     1.0000 0.38940  0.50000  0.94130  Biso   1.000  O
  C349     1.0000 0.30280  0.50000  0.85410  Biso   1.000  C
  H157     1.0000 0.27530  0.50000  0.86210  Biso   1.000  H
  C350     1.0000 0.32980  0.50000  0.88370  Biso   1.000  C
  H158     1.0000 0.32150  0.50000  0.91110  Biso   1.000  H
  O112     1.0000 0.38940  0.50000  0.05870  Biso   1.000  O
  C351     1.0000 0.30280  0.50000  0.14590  Biso   1.000  C
  H159     1.0000 0.27530  0.50000  0.13790  Biso   1.000  H
  C352     1.0000 0.32980  0.50000  0.11630  Biso   1.000  C
  H160     1.0000 0.32150  0.50000  0.08890  Biso   1.000  H
  O113     1.0000 0.44130  0.61060  0.00000  Biso   1.000  O
  C353     1.0000 0.35410  0.69720  0.00000  Biso   1.000  C
  H161     1.0000 0.36210  0.72470  0.00000  Biso   1.000  H
  C354     1.0000 0.38370  0.67020  0.00000  Biso   1.000  C
  H162     1.0000 0.41110  0.67850  0.00000  Biso   1.000  H
  O114     1.0000 0.55870  0.61060  0.00000  Biso   1.000  O
  C355     1.0000 0.64590  0.69720  0.00000  Biso   1.000  C
  H163     1.0000 0.63790  0.72470  0.00000  Biso   1.000  H
  C356     1.0000 0.61630  0.67020  0.00000  Biso   1.000  C
  H164     1.0000 0.58890  0.67850  0.00000  Biso   1.000  H
  O115     1.0000 0.44130  0.38940  0.00000  Biso   1.000  O
  C357     1.0000 0.35410  0.30280  0.00000  Biso   1.000  C
  H165     1.0000 0.36210  0.27530  0.00000  Biso   1.000  H
  C358     1.0000 0.38370  0.32980  0.00000  Biso   1.000  C
  H166     1.0000 0.41110  0.32150  0.00000  Biso   1.000  H
  O116     1.0000 0.55870  0.38940  0.00000  Biso   1.000  O
  C359     1.0000 0.64590  0.30280  0.00000  Biso   1.000  C
  H167     1.0000 0.63790  0.27530  0.00000  Biso   1.000  H
  C360     1.0000 0.61630  0.32980  0.00000  Biso   1.000  C
  H168     1.0000 0.58890  0.32150  0.00000  Biso   1.000  H
  O117     1.0000 0.44130  0.50000  0.88940  Biso   1.000  O
  C361     1.0000 0.35410  0.50000  0.80280  Biso   1.000  C
  H169     1.0000 0.36210  0.50000  0.77530  Biso   1.000  H
  C362     1.0000 0.38370  0.50000  0.82980  Biso   1.000  C
  H170     1.0000 0.41110  0.50000  0.82150  Biso   1.000  H
  O118     1.0000 0.55870  0.50000  0.88940  Biso   1.000  O
  C363     1.0000 0.64590  0.50000  0.80280  Biso   1.000  C
  H171     1.0000 0.63790  0.50000  0.77530  Biso   1.000  H
  C364     1.0000 0.61630  0.50000  0.82980  Biso   1.000  C
  H172     1.0000 0.58890  0.50000  0.82150  Biso   1.000  H
  O119     1.0000 0.44130  0.50000  0.11060  Biso   1.000  O
  C365     1.0000 0.35410  0.50000  0.19720  Biso   1.000  C
  H173     1.0000 0.36210  0.50000  0.22470  Biso   1.000  H
  C366     1.0000 0.38370  0.50000  0.17020  Biso   1.000  C
  H174     1.0000 0.41110  0.50000  0.17850  Biso   1.000  H
  O120     1.0000 0.55870  0.50000  0.11060  Biso   1.000  O
  C367     1.0000 0.64590  0.50000  0.19720  Biso   1.000  C
  H175     1.0000 0.63790  0.50000  0.22470  Biso   1.000  H
  C368     1.0000 0.61630  0.50000  0.17020  Biso   1.000  C
  H176     1.0000 0.58890  0.50000  0.17850  Biso   1.000  H
  O121     1.0000 0.50000  0.61060  0.05870  Biso   1.000  O
  C369     1.0000 0.50000  0.69720  0.14590  Biso   1.000  C
  H177     1.0000 0.50000  0.72470  0.13790  Biso   1.000  H
  C370     1.0000 0.50000  0.67020  0.11630  Biso   1.000  C
  H178     1.0000 0.50000  0.67850  0.08890  Biso   1.000  H
  O122     1.0000 0.50000  0.61060  0.94130  Biso   1.000  O
  C371     1.0000 0.50000  0.69720  0.85410  Biso   1.000  C
  H179     1.0000 0.50000  0.72470  0.86210  Biso   1.000  H
  C372     1.0000 0.50000  0.67020  0.88370  Biso   1.000  C
  H180     1.0000 0.50000  0.67850  0.91110  Biso   1.000  H
  O123     1.0000 0.50000  0.38940  0.05870  Biso   1.000  O
  C373     1.0000 0.50000  0.30280  0.14590  Biso   1.000  C
  H181     1.0000 0.50000  0.27530  0.13790  Biso   1.000  H
  C374     1.0000 0.50000  0.32980  0.11630  Biso   1.000  C
  H182     1.0000 0.50000  0.32150  0.08890  Biso   1.000  H
  O124     1.0000 0.50000  0.38940  0.94130  Biso   1.000  O
  C375     1.0000 0.50000  0.30280  0.85410  Biso   1.000  C
  H183     1.0000 0.50000  0.27530  0.86210  Biso   1.000  H
  C376     1.0000 0.50000  0.32980  0.88370  Biso   1.000  C
  H184     1.0000 0.50000  0.32150  0.91110  Biso   1.000  H
  O125     1.0000 0.61060  0.44130  0.00000  Biso   1.000  O
  C377     1.0000 0.69720  0.35410  0.00000  Biso   1.000  C
  H185     1.0000 0.72470  0.36210  0.00000  Biso   1.000  H
  C378     1.0000 0.67020  0.38370  0.00000  Biso   1.000  C
  H186     1.0000 0.67850  0.41110  0.00000  Biso   1.000  H
  O126     1.0000 0.61060  0.55870  0.00000  Biso   1.000  O
  C379     1.0000 0.69720  0.64590  0.00000  Biso   1.000  C
  H187     1.0000 0.72470  0.63790  0.00000  Biso   1.000  H
  C380     1.0000 0.67020  0.61630  0.00000  Biso   1.000  C
  H188     1.0000 0.67850  0.58890  0.00000  Biso   1.000  H
  O127     1.0000 0.38940  0.44130  0.00000  Biso   1.000  O
  C381     1.0000 0.30280  0.35410  0.00000  Biso   1.000  C
  H189     1.0000 0.27530  0.36210  0.00000  Biso   1.000  H
  C382     1.0000 0.32980  0.38370  0.00000  Biso   1.000  C
  H190     1.0000 0.32150  0.41110  0.00000  Biso   1.000  H
  O128     1.0000 0.38940  0.55870  0.00000  Biso   1.000  O
  C383     1.0000 0.30280  0.64590  0.00000  Biso   1.000  C
  H191     1.0000 0.27530  0.63790  0.00000  Biso   1.000  H
  C384     1.0000 0.32980  0.61630  0.00000  Biso   1.000  C
  H192     1.0000 0.32150  0.58890  0.00000  Biso   1.000  H
