data_image0
_cell_length_a       38.3
_cell_length_b       38.3
_cell_length_c       38.3
_cell_angle_alpha    90
_cell_angle_beta     90
_cell_angle_gamma    90

_symmetry_space_group_name_H-M    "P 1"
_symmetry_int_tables_number       1

loop_
  _symmetry_equiv_pos_as_xyz
  'x, y, z'

loop_
  _atom_site_label
  _atom_site_occupancy
  _atom_site_fract_x
  _atom_site_fract_y
  _atom_site_fract_z
  _atom_site_thermal_displace_type
  _atom_site_B_iso_or_equiv
  _atom_site_type_symbol
  C1       1.0000 0.19370  0.23550  0.05500  Biso   1.000  C
  H1       1.0000 0.18370  0.25570  0.04590  Biso   1.000  H
  C2       1.0000 0.17840  0.22100  0.08230  Biso   1.000  C
  H2       1.0000 0.15770  0.23010  0.09100  Biso   1.000  H
  C3       1.0000 0.30630  0.26450  0.05500  Biso   1.000  C
  H3       1.0000 0.31630  0.24430  0.04590  Biso   1.000  H
  C4       1.0000 0.32160  0.27900  0.08230  Biso   1.000  C
  H4       1.0000 0.34230  0.26990  0.09100  Biso   1.000  H
  C5       1.0000 0.23550  0.19370  0.94500  Biso   1.000  C
  H5       1.0000 0.25570  0.18370  0.95410  Biso   1.000  H
  C6       1.0000 0.22100  0.17840  0.91770  Biso   1.000  C
  H6       1.0000 0.23010  0.15770  0.90900  Biso   1.000  H
  C7       1.0000 0.26450  0.30630  0.94500  Biso   1.000  C
  H7       1.0000 0.24430  0.31630  0.95410  Biso   1.000  H
  C8       1.0000 0.27900  0.32160  0.91770  Biso   1.000  C
  H8       1.0000 0.26990  0.34230  0.90900  Biso   1.000  H
  C9       1.0000 0.30630  0.26450  0.94500  Biso   1.000  C
  H9       1.0000 0.31630  0.24430  0.95410  Biso   1.000  H
  C10      1.0000 0.32160  0.27900  0.91770  Biso   1.000  C
  H10      1.0000 0.34230  0.26990  0.90900  Biso   1.000  H
  C11      1.0000 0.19370  0.23550  0.94500  Biso   1.000  C
  H11      1.0000 0.18370  0.25570  0.95410  Biso   1.000  H
  C12      1.0000 0.17840  0.22100  0.91770  Biso   1.000  C
  H12      1.0000 0.15770  0.23010  0.90900  Biso   1.000  H
  C13      1.0000 0.26450  0.30630  0.05500  Biso   1.000  C
  H13      1.0000 0.24430  0.31630  0.04590  Biso   1.000  H
  C14      1.0000 0.27900  0.32160  0.08230  Biso   1.000  C
  H14      1.0000 0.26990  0.34230  0.09100  Biso   1.000  H
  C15      1.0000 0.23550  0.19370  0.05500  Biso   1.000  C
  H15      1.0000 0.25570  0.18370  0.04590  Biso   1.000  H
  C16      1.0000 0.22100  0.17840  0.08230  Biso   1.000  C
  H16      1.0000 0.23010  0.15770  0.09100  Biso   1.000  H
  Fe1      1.0000 0.25000  0.25000  0.00000  Biso   1.000  Fe
  N1       1.0000 0.22300  0.22300  0.03920  Biso   1.000  N
  C17      1.0000 0.19300  0.19300  0.09730  Biso   1.000  C
  N2       1.0000 0.27700  0.27700  0.03920  Biso   1.000  N
  C18      1.0000 0.30700  0.30700  0.09730  Biso   1.000  C
  N3       1.0000 0.22300  0.22300  0.96080  Biso   1.000  N
  C19      1.0000 0.19300  0.19300  0.90270  Biso   1.000  C
  N4       1.0000 0.27700  0.27700  0.96080  Biso   1.000  N
  C20      1.0000 0.30700  0.30700  0.90270  Biso   1.000  C
  N5       1.0000 0.28920  0.21080  0.00000  Biso   1.000  N
  N6       1.0000 0.21080  0.28920  0.00000  Biso   1.000  N
  C21      1.0000 0.30650  0.18230  0.00000  Biso   1.000  C
  S1       1.0000 0.32190  0.15100  0.00000  Biso   1.000  S
  C22      1.0000 0.19350  0.31770  0.00000  Biso   1.000  C
  S2       1.0000 0.17810  0.34900  0.00000  Biso   1.000  S
  C23      1.0000 0.18230  0.30650  0.00000  Biso   1.000  C
  S3       1.0000 0.15100  0.32190  0.00000  Biso   1.000  S
  C24      1.0000 0.31770  0.19350  0.00000  Biso   1.000  C
  S4       1.0000 0.34900  0.17810  0.00000  Biso   1.000  S
  C25      1.0000 0.19370  0.73550  0.55500  Biso   1.000  C
  H17      1.0000 0.18370  0.75570  0.54590  Biso   1.000  H
  C26      1.0000 0.17840  0.72100  0.58230  Biso   1.000  C
  H18      1.0000 0.15770  0.73010  0.59100  Biso   1.000  H
  C27      1.0000 0.30630  0.76450  0.55500  Biso   1.000  C
  H19      1.0000 0.31630  0.74430  0.54590  Biso   1.000  H
  C28      1.0000 0.32160  0.77900  0.58230  Biso   1.000  C
  H20      1.0000 0.34230  0.76990  0.59100  Biso   1.000  H
  C29      1.0000 0.23550  0.69370  0.44500  Biso   1.000  C
  H21      1.0000 0.25570  0.68370  0.45410  Biso   1.000  H
  C30      1.0000 0.22100  0.67840  0.41770  Biso   1.000  C
  H22      1.0000 0.23010  0.65770  0.40900  Biso   1.000  H
  C31      1.0000 0.26450  0.80630  0.44500  Biso   1.000  C
  H23      1.0000 0.24430  0.81630  0.45410  Biso   1.000  H
  C32      1.0000 0.27900  0.82160  0.41770  Biso   1.000  C
  H24      1.0000 0.26990  0.84230  0.40900  Biso   1.000  H
  C33      1.0000 0.30630  0.76450  0.44500  Biso   1.000  C
  H25      1.0000 0.31630  0.74430  0.45410  Biso   1.000  H
  C34      1.0000 0.32160  0.77900  0.41770  Biso   1.000  C
  H26      1.0000 0.34230  0.76990  0.40900  Biso   1.000  H
  C35      1.0000 0.19370  0.73550  0.44500  Biso   1.000  C
  H27      1.0000 0.18370  0.75570  0.45410  Biso   1.000  H
  C36      1.0000 0.17840  0.72100  0.41770  Biso   1.000  C
  H28      1.0000 0.15770  0.73010  0.40900  Biso   1.000  H
  C37      1.0000 0.26450  0.80630  0.55500  Biso   1.000  C
  H29      1.0000 0.24430  0.81630  0.54590  Biso   1.000  H
  C38      1.0000 0.27900  0.82160  0.58230  Biso   1.000  C
  H30      1.0000 0.26990  0.84230  0.59100  Biso   1.000  H
  C39      1.0000 0.23550  0.69370  0.55500  Biso   1.000  C
  H31      1.0000 0.25570  0.68370  0.54590  Biso   1.000  H
  C40      1.0000 0.22100  0.67840  0.58230  Biso   1.000  C
  H32      1.0000 0.23010  0.65770  0.59100  Biso   1.000  H
  Fe2      1.0000 0.25000  0.75000  0.50000  Biso   1.000  Fe
  N7       1.0000 0.22300  0.72300  0.53920  Biso   1.000  N
  C41      1.0000 0.19300  0.69300  0.59730  Biso   1.000  C
  N8       1.0000 0.27700  0.77700  0.53920  Biso   1.000  N
  C42      1.0000 0.30700  0.80700  0.59730  Biso   1.000  C
  N9       1.0000 0.22300  0.72300  0.46080  Biso   1.000  N
  C43      1.0000 0.19300  0.69300  0.40270  Biso   1.000  C
  N10      1.0000 0.27700  0.77700  0.46080  Biso   1.000  N
  C44      1.0000 0.30700  0.80700  0.40270  Biso   1.000  C
  N11      1.0000 0.28920  0.71080  0.50000  Biso   1.000  N
  N12      1.0000 0.21080  0.78920  0.50000  Biso   1.000  N
  C45      1.0000 0.30650  0.68230  0.50000  Biso   1.000  C
  S5       1.0000 0.32190  0.65100  0.50000  Biso   1.000  S
  C46      1.0000 0.19350  0.81770  0.50000  Biso   1.000  C
  S6       1.0000 0.17810  0.84900  0.50000  Biso   1.000  S
  C47      1.0000 0.18230  0.80650  0.50000  Biso   1.000  C
  S7       1.0000 0.15100  0.82190  0.50000  Biso   1.000  S
  C48      1.0000 0.31770  0.69350  0.50000  Biso   1.000  C
  S8       1.0000 0.34900  0.67810  0.50000  Biso   1.000  S
  C49      1.0000 0.69370  0.23550  0.55500  Biso   1.000  C
  H33      1.0000 0.68370  0.25570  0.54590  Biso   1.000  H
  C50      1.0000 0.67840  0.22100  0.58230  Biso   1.000  C
  H34      1.0000 0.65770  0.23010  0.59100  Biso   1.000  H
  C51      1.0000 0.80630  0.26450  0.55500  Biso   1.000  C
  H35      1.0000 0.81630  0.24430  0.54590  Biso   1.000  H
  C52      1.0000 0.82160  0.27900  0.58230  Biso   1.000  C
  H36      1.0000 0.84230  0.26990  0.59100  Biso   1.000  H
  C53      1.0000 0.73550  0.19370  0.44500  Biso   1.000  C
  H37      1.0000 0.75570  0.18370  0.45410  Biso   1.000  H
  C54      1.0000 0.72100  0.17840  0.41770  Biso   1.000  C
  H38      1.0000 0.73010  0.15770  0.40900  Biso   1.000  H
  C55      1.0000 0.76450  0.30630  0.44500  Biso   1.000  C
  H39      1.0000 0.74430  0.31630  0.45410  Biso   1.000  H
  C56      1.0000 0.77900  0.32160  0.41770  Biso   1.000  C
  H40      1.0000 0.76990  0.34230  0.40900  Biso   1.000  H
  C57      1.0000 0.80630  0.26450  0.44500  Biso   1.000  C
  H41      1.0000 0.81630  0.24430  0.45410  Biso   1.000  H
  C58      1.0000 0.82160  0.27900  0.41770  Biso   1.000  C
  H42      1.0000 0.84230  0.26990  0.40900  Biso   1.000  H
  C59      1.0000 0.69370  0.23550  0.44500  Biso   1.000  C
  H43      1.0000 0.68370  0.25570  0.45410  Biso   1.000  H
  C60      1.0000 0.67840  0.22100  0.41770  Biso   1.000  C
  H44      1.0000 0.65770  0.23010  0.40900  Biso   1.000  H
  C61      1.0000 0.76450  0.30630  0.55500  Biso   1.000  C
  H45      1.0000 0.74430  0.31630  0.54590  Biso   1.000  H
  C62      1.0000 0.77900  0.32160  0.58230  Biso   1.000  C
  H46      1.0000 0.76990  0.34230  0.59100  Biso   1.000  H
  C63      1.0000 0.73550  0.19370  0.55500  Biso   1.000  C
  H47      1.0000 0.75570  0.18370  0.54590  Biso   1.000  H
  C64      1.0000 0.72100  0.17840  0.58230  Biso   1.000  C
  H48      1.0000 0.73010  0.15770  0.59100  Biso   1.000  H
  Fe3      1.0000 0.75000  0.25000  0.50000  Biso   1.000  Fe
  N13      1.0000 0.72300  0.22300  0.53920  Biso   1.000  N
  C65      1.0000 0.69300  0.19300  0.59730  Biso   1.000  C
  N14      1.0000 0.77700  0.27700  0.53920  Biso   1.000  N
  C66      1.0000 0.80700  0.30700  0.59730  Biso   1.000  C
  N15      1.0000 0.72300  0.22300  0.46080  Biso   1.000  N
  C67      1.0000 0.69300  0.19300  0.40270  Biso   1.000  C
  N16      1.0000 0.77700  0.27700  0.46080  Biso   1.000  N
  C68      1.0000 0.80700  0.30700  0.40270  Biso   1.000  C
  N17      1.0000 0.71080  0.28920  0.50000  Biso   1.000  N
  N18      1.0000 0.78920  0.21080  0.50000  Biso   1.000  N
  C69      1.0000 0.80650  0.18230  0.50000  Biso   1.000  C
  S9       1.0000 0.82190  0.15100  0.50000  Biso   1.000  S
  C70      1.0000 0.69350  0.31770  0.50000  Biso   1.000  C
  S10      1.0000 0.67810  0.34900  0.50000  Biso   1.000  S
  C71      1.0000 0.68230  0.30650  0.50000  Biso   1.000  C
  S11      1.0000 0.65100  0.32190  0.50000  Biso   1.000  S
  C72      1.0000 0.81770  0.19350  0.50000  Biso   1.000  C
  S12      1.0000 0.84900  0.17810  0.50000  Biso   1.000  S
  C73      1.0000 0.69370  0.73550  0.05500  Biso   1.000  C
  H49      1.0000 0.68370  0.75570  0.04590  Biso   1.000  H
  C74      1.0000 0.67840  0.72100  0.08230  Biso   1.000  C
  H50      1.0000 0.65770  0.73010  0.09100  Biso   1.000  H
  C75      1.0000 0.80630  0.76450  0.05500  Biso   1.000  C
  H51      1.0000 0.81630  0.74430  0.04590  Biso   1.000  H
  C76      1.0000 0.82160  0.77900  0.08230  Biso   1.000  C
  H52      1.0000 0.84230  0.76990  0.09100  Biso   1.000  H
  C77      1.0000 0.73550  0.69370  0.94500  Biso   1.000  C
  H53      1.0000 0.75570  0.68370  0.95410  Biso   1.000  H
  C78      1.0000 0.72100  0.67840  0.91770  Biso   1.000  C
  H54      1.0000 0.73010  0.65770  0.90900  Biso   1.000  H
  C79      1.0000 0.76450  0.80630  0.94500  Biso   1.000  C
  H55      1.0000 0.74430  0.81630  0.95410  Biso   1.000  H
  C80      1.0000 0.77900  0.82160  0.91770  Biso   1.000  C
  H56      1.0000 0.76990  0.84230  0.90900  Biso   1.000  H
  C81      1.0000 0.80630  0.76450  0.94500  Biso   1.000  C
  H57      1.0000 0.81630  0.74430  0.95410  Biso   1.000  H
  C82      1.0000 0.82160  0.77900  0.91770  Biso   1.000  C
  H58      1.0000 0.84230  0.76990  0.90900  Biso   1.000  H
  C83      1.0000 0.69370  0.73550  0.94500  Biso   1.000  C
  H59      1.0000 0.68370  0.75570  0.95410  Biso   1.000  H
  C84      1.0000 0.67840  0.72100  0.91770  Biso   1.000  C
  H60      1.0000 0.65770  0.73010  0.90900  Biso   1.000  H
  C85      1.0000 0.76450  0.80630  0.05500  Biso   1.000  C
  H61      1.0000 0.74430  0.81630  0.04590  Biso   1.000  H
  C86      1.0000 0.77900  0.82160  0.08230  Biso   1.000  C
  H62      1.0000 0.76990  0.84230  0.09100  Biso   1.000  H
  C87      1.0000 0.73550  0.69370  0.05500  Biso   1.000  C
  H63      1.0000 0.75570  0.68370  0.04590  Biso   1.000  H
  C88      1.0000 0.72100  0.67840  0.08230  Biso   1.000  C
  H64      1.0000 0.73010  0.65770  0.09100  Biso   1.000  H
  Fe4      1.0000 0.75000  0.75000  0.00000  Biso   1.000  Fe
  N19      1.0000 0.72300  0.72300  0.03920  Biso   1.000  N
  C89      1.0000 0.69300  0.69300  0.09730  Biso   1.000  C
  N20      1.0000 0.77700  0.77700  0.03920  Biso   1.000  N
  C90      1.0000 0.80700  0.80700  0.09730  Biso   1.000  C
  N21      1.0000 0.72300  0.72300  0.96080  Biso   1.000  N
  C91      1.0000 0.69300  0.69300  0.90270  Biso   1.000  C
  N22      1.0000 0.77700  0.77700  0.96080  Biso   1.000  N
  C92      1.0000 0.80700  0.80700  0.90270  Biso   1.000  C
  N23      1.0000 0.71080  0.78920  0.00000  Biso   1.000  N
  N24      1.0000 0.78920  0.71080  0.00000  Biso   1.000  N
  C93      1.0000 0.80650  0.68230  0.00000  Biso   1.000  C
  S13      1.0000 0.82190  0.65100  0.00000  Biso   1.000  S
  C94      1.0000 0.69350  0.81770  0.00000  Biso   1.000  C
  S14      1.0000 0.67810  0.84900  0.00000  Biso   1.000  S
  C95      1.0000 0.68230  0.80650  0.00000  Biso   1.000  C
  S15      1.0000 0.65100  0.82190  0.00000  Biso   1.000  S
  C96      1.0000 0.81770  0.69350  0.00000  Biso   1.000  C
  S16      1.0000 0.84900  0.67810  0.00000  Biso   1.000  S
  C97      1.0000 0.80630  0.23550  0.94500  Biso   1.000  C
  H65      1.0000 0.81630  0.25570  0.95410  Biso   1.000  H
  C98      1.0000 0.82160  0.22100  0.91770  Biso   1.000  C
  H66      1.0000 0.84230  0.23010  0.90900  Biso   1.000  H
  C99      1.0000 0.69370  0.26450  0.94500  Biso   1.000  C
  H67      1.0000 0.68370  0.24430  0.95410  Biso   1.000  H
  C100     1.0000 0.67840  0.27900  0.91770  Biso   1.000  C
  H68      1.0000 0.65770  0.26990  0.90900  Biso   1.000  H
  C101     1.0000 0.73550  0.30630  0.05500  Biso   1.000  C
  H69      1.0000 0.75570  0.31630  0.04590  Biso   1.000  H
  C102     1.0000 0.72100  0.32160  0.08230  Biso   1.000  C
  H70      1.0000 0.73010  0.34230  0.09100  Biso   1.000  H
  C103     1.0000 0.76450  0.19370  0.05500  Biso   1.000  C
  H71      1.0000 0.74430  0.18370  0.04590  Biso   1.000  H
  C104     1.0000 0.77900  0.17840  0.08230  Biso   1.000  C
  H72      1.0000 0.76990  0.15770  0.09100  Biso   1.000  H
  C105     1.0000 0.69370  0.26450  0.05500  Biso   1.000  C
  H73      1.0000 0.68370  0.24430  0.04590  Biso   1.000  H
  C106     1.0000 0.67840  0.27900  0.08230  Biso   1.000  C
  H74      1.0000 0.65770  0.26990  0.09100  Biso   1.000  H
  C107     1.0000 0.80630  0.23550  0.05500  Biso   1.000  C
  H75      1.0000 0.81630  0.25570  0.04590  Biso   1.000  H
  C108     1.0000 0.82160  0.22100  0.08230  Biso   1.000  C
  H76      1.0000 0.84230  0.23010  0.09100  Biso   1.000  H
  C109     1.0000 0.76450  0.19370  0.94500  Biso   1.000  C
  H77      1.0000 0.74430  0.18370  0.95410  Biso   1.000  H
  C110     1.0000 0.77900  0.17840  0.91770  Biso   1.000  C
  H78      1.0000 0.76990  0.15770  0.90900  Biso   1.000  H
  C111     1.0000 0.73550  0.30630  0.94500  Biso   1.000  C
  H79      1.0000 0.75570  0.31630  0.95410  Biso   1.000  H
  C112     1.0000 0.72100  0.32160  0.91770  Biso   1.000  C
  H80      1.0000 0.73010  0.34230  0.90900  Biso   1.000  H
  Fe5      1.0000 0.75000  0.25000  0.00000  Biso   1.000  Fe
  N25      1.0000 0.77700  0.22300  0.96080  Biso   1.000  N
  C113     1.0000 0.80700  0.19300  0.90270  Biso   1.000  C
  N26      1.0000 0.72300  0.27700  0.96080  Biso   1.000  N
  C114     1.0000 0.69300  0.30700  0.90270  Biso   1.000  C
  N27      1.0000 0.72300  0.27700  0.03920  Biso   1.000  N
  C115     1.0000 0.69300  0.30700  0.09730  Biso   1.000  C
  N28      1.0000 0.77700  0.22300  0.03920  Biso   1.000  N
  C116     1.0000 0.80700  0.19300  0.09730  Biso   1.000  C
  N29      1.0000 0.71080  0.21080  0.00000  Biso   1.000  N
  N30      1.0000 0.78920  0.28920  0.00000  Biso   1.000  N
  C117     1.0000 0.69350  0.18230  0.00000  Biso   1.000  C
  S17      1.0000 0.67810  0.15100  0.00000  Biso   1.000  S
  C118     1.0000 0.80650  0.31770  0.00000  Biso   1.000  C
  S18      1.0000 0.82190  0.34900  0.00000  Biso   1.000  S
  C119     1.0000 0.68230  0.19350  0.00000  Biso   1.000  C
  S19      1.0000 0.65100  0.17810  0.00000  Biso   1.000  S
  C120     1.0000 0.81770  0.30650  0.00000  Biso   1.000  C
  S20      1.0000 0.84900  0.32190  0.00000  Biso   1.000  S
  C121     1.0000 0.80630  0.73550  0.44500  Biso   1.000  C
  H81      1.0000 0.81630  0.75570  0.45410  Biso   1.000  H
  C122     1.0000 0.82160  0.72100  0.41770  Biso   1.000  C
  H82      1.0000 0.84230  0.73010  0.40900  Biso   1.000  H
  C123     1.0000 0.69370  0.76450  0.44500  Biso   1.000  C
  H83      1.0000 0.68370  0.74430  0.45410  Biso   1.000  H
  C124     1.0000 0.67840  0.77900  0.41770  Biso   1.000  C
  H84      1.0000 0.65770  0.76990  0.40900  Biso   1.000  H
  C125     1.0000 0.73550  0.80630  0.55500  Biso   1.000  C
  H85      1.0000 0.75570  0.81630  0.54590  Biso   1.000  H
  C126     1.0000 0.72100  0.82160  0.58230  Biso   1.000  C
  H86      1.0000 0.73010  0.84230  0.59100  Biso   1.000  H
  C127     1.0000 0.76450  0.69370  0.55500  Biso   1.000  C
  H87      1.0000 0.74430  0.68370  0.54590  Biso   1.000  H
  C128     1.0000 0.77900  0.67840  0.58230  Biso   1.000  C
  H88      1.0000 0.76990  0.65770  0.59100  Biso   1.000  H
  C129     1.0000 0.69370  0.76450  0.55500  Biso   1.000  C
  H89      1.0000 0.68370  0.74430  0.54590  Biso   1.000  H
  C130     1.0000 0.67840  0.77900  0.58230  Biso   1.000  C
  H90      1.0000 0.65770  0.76990  0.59100  Biso   1.000  H
  C131     1.0000 0.80630  0.73550  0.55500  Biso   1.000  C
  H91      1.0000 0.81630  0.75570  0.54590  Biso   1.000  H
  C132     1.0000 0.82160  0.72100  0.58230  Biso   1.000  C
  H92      1.0000 0.84230  0.73010  0.59100  Biso   1.000  H
  C133     1.0000 0.76450  0.69370  0.44500  Biso   1.000  C
  H93      1.0000 0.74430  0.68370  0.45410  Biso   1.000  H
  C134     1.0000 0.77900  0.67840  0.41770  Biso   1.000  C
  H94      1.0000 0.76990  0.65770  0.40900  Biso   1.000  H
  C135     1.0000 0.73550  0.80630  0.44500  Biso   1.000  C
  H95      1.0000 0.75570  0.81630  0.45410  Biso   1.000  H
  C136     1.0000 0.72100  0.82160  0.41770  Biso   1.000  C
  H96      1.0000 0.73010  0.84230  0.40900  Biso   1.000  H
  Fe6      1.0000 0.75000  0.75000  0.50000  Biso   1.000  Fe
  N31      1.0000 0.77700  0.72300  0.46080  Biso   1.000  N
  C137     1.0000 0.80700  0.69300  0.40270  Biso   1.000  C
  N32      1.0000 0.72300  0.77700  0.46080  Biso   1.000  N
  C138     1.0000 0.69300  0.80700  0.40270  Biso   1.000  C
  N33      1.0000 0.72300  0.77700  0.53920  Biso   1.000  N
  C139     1.0000 0.69300  0.80700  0.59730  Biso   1.000  C
  N34      1.0000 0.77700  0.72300  0.53920  Biso   1.000  N
  C140     1.0000 0.80700  0.69300  0.59730  Biso   1.000  C
  N35      1.0000 0.71080  0.71080  0.50000  Biso   1.000  N
  N36      1.0000 0.78920  0.78920  0.50000  Biso   1.000  N
  C141     1.0000 0.69350  0.68230  0.50000  Biso   1.000  C
  S21      1.0000 0.67810  0.65100  0.50000  Biso   1.000  S
  C142     1.0000 0.80650  0.81770  0.50000  Biso   1.000  C
  S22      1.0000 0.82190  0.84900  0.50000  Biso   1.000  S
  C143     1.0000 0.68230  0.69350  0.50000  Biso   1.000  C
  S23      1.0000 0.65100  0.67810  0.50000  Biso   1.000  S
  C144     1.0000 0.81770  0.80650  0.50000  Biso   1.000  C
  S24      1.0000 0.84900  0.82190  0.50000  Biso   1.000  S
  C145     1.0000 0.30630  0.23550  0.44500  Biso   1.000  C
  H97      1.0000 0.31630  0.25570  0.45410  Biso   1.000  H
  C146     1.0000 0.32160  0.22100  0.41770  Biso   1.000  C
  H98      1.0000 0.34230  0.23010  0.40900  Biso   1.000  H
  C147     1.0000 0.19370  0.26450  0.44500  Biso   1.000  C
  H99      1.0000 0.18370  0.24430  0.45410  Biso   1.000  H
  C148     1.0000 0.17840  0.27900  0.41770  Biso   1.000  C
  H100     1.0000 0.15770  0.26990  0.40900  Biso   1.000  H
  C149     1.0000 0.23550  0.30630  0.55500  Biso   1.000  C
  H101     1.0000 0.25570  0.31630  0.54590  Biso   1.000  H
  C150     1.0000 0.22100  0.32160  0.58230  Biso   1.000  C
  H102     1.0000 0.23010  0.34230  0.59100  Biso   1.000  H
  C151     1.0000 0.26450  0.19370  0.55500  Biso   1.000  C
  H103     1.0000 0.24430  0.18370  0.54590  Biso   1.000  H
  C152     1.0000 0.27900  0.17840  0.58230  Biso   1.000  C
  H104     1.0000 0.26990  0.15770  0.59100  Biso   1.000  H
  C153     1.0000 0.19370  0.26450  0.55500  Biso   1.000  C
  H105     1.0000 0.18370  0.24430  0.54590  Biso   1.000  H
  C154     1.0000 0.17840  0.27900  0.58230  Biso   1.000  C
  H106     1.0000 0.15770  0.26990  0.59100  Biso   1.000  H
  C155     1.0000 0.30630  0.23550  0.55500  Biso   1.000  C
  H107     1.0000 0.31630  0.25570  0.54590  Biso   1.000  H
  C156     1.0000 0.32160  0.22100  0.58230  Biso   1.000  C
  H108     1.0000 0.34230  0.23010  0.59100  Biso   1.000  H
  C157     1.0000 0.26450  0.19370  0.44500  Biso   1.000  C
  H109     1.0000 0.24430  0.18370  0.45410  Biso   1.000  H
  C158     1.0000 0.27900  0.17840  0.41770  Biso   1.000  C
  H110     1.0000 0.26990  0.15770  0.40900  Biso   1.000  H
  C159     1.0000 0.23550  0.30630  0.44500  Biso   1.000  C
  H111     1.0000 0.25570  0.31630  0.45410  Biso   1.000  H
  C160     1.0000 0.22100  0.32160  0.41770  Biso   1.000  C
  H112     1.0000 0.23010  0.34230  0.40900  Biso   1.000  H
  Fe7      1.0000 0.25000  0.25000  0.50000  Biso   1.000  Fe
  N37      1.0000 0.27700  0.22300  0.46080  Biso   1.000  N
  C161     1.0000 0.30700  0.19300  0.40270  Biso   1.000  C
  N38      1.0000 0.22300  0.27700  0.46080  Biso   1.000  N
  C162     1.0000 0.19300  0.30700  0.40270  Biso   1.000  C
  N39      1.0000 0.22300  0.27700  0.53920  Biso   1.000  N
  C163     1.0000 0.19300  0.30700  0.59730  Biso   1.000  C
  N40      1.0000 0.27700  0.22300  0.53920  Biso   1.000  N
  C164     1.0000 0.30700  0.19300  0.59730  Biso   1.000  C
  N41      1.0000 0.21080  0.21080  0.50000  Biso   1.000  N
  N42      1.0000 0.28920  0.28920  0.50000  Biso   1.000  N
  C165     1.0000 0.19350  0.18230  0.50000  Biso   1.000  C
  S25      1.0000 0.17810  0.15100  0.50000  Biso   1.000  S
  C166     1.0000 0.30650  0.31770  0.50000  Biso   1.000  C
  S26      1.0000 0.32190  0.34900  0.50000  Biso   1.000  S
  C167     1.0000 0.18230  0.19350  0.50000  Biso   1.000  C
  S27      1.0000 0.15100  0.17810  0.50000  Biso   1.000  S
  C168     1.0000 0.31770  0.30650  0.50000  Biso   1.000  C
  S28      1.0000 0.34900  0.32190  0.50000  Biso   1.000  S
  C169     1.0000 0.30630  0.73550  0.94500  Biso   1.000  C
  H113     1.0000 0.31630  0.75570  0.95410  Biso   1.000  H
  C170     1.0000 0.32160  0.72100  0.91770  Biso   1.000  C
  H114     1.0000 0.34230  0.73010  0.90900  Biso   1.000  H
  C171     1.0000 0.19370  0.76450  0.94500  Biso   1.000  C
  H115     1.0000 0.18370  0.74430  0.95410  Biso   1.000  H
  C172     1.0000 0.17840  0.77900  0.91770  Biso   1.000  C
  H116     1.0000 0.15770  0.76990  0.90900  Biso   1.000  H
  C173     1.0000 0.23550  0.80630  0.05500  Biso   1.000  C
  H117     1.0000 0.25570  0.81630  0.04590  Biso   1.000  H
  C174     1.0000 0.22100  0.82160  0.08230  Biso   1.000  C
  H118     1.0000 0.23010  0.84230  0.09100  Biso   1.000  H
  C175     1.0000 0.26450  0.69370  0.05500  Biso   1.000  C
  H119     1.0000 0.24430  0.68370  0.04590  Biso   1.000  H
  C176     1.0000 0.27900  0.67840  0.08230  Biso   1.000  C
  H120     1.0000 0.26990  0.65770  0.09100  Biso   1.000  H
  C177     1.0000 0.19370  0.76450  0.05500  Biso   1.000  C
  H121     1.0000 0.18370  0.74430  0.04590  Biso   1.000  H
  C178     1.0000 0.17840  0.77900  0.08230  Biso   1.000  C
  H122     1.0000 0.15770  0.76990  0.09100  Biso   1.000  H
  C179     1.0000 0.30630  0.73550  0.05500  Biso   1.000  C
  H123     1.0000 0.31630  0.75570  0.04590  Biso   1.000  H
  C180     1.0000 0.32160  0.72100  0.08230  Biso   1.000  C
  H124     1.0000 0.34230  0.73010  0.09100  Biso   1.000  H
  C181     1.0000 0.26450  0.69370  0.94500  Biso   1.000  C
  H125     1.0000 0.24430  0.68370  0.95410  Biso   1.000  H
  C182     1.0000 0.27900  0.67840  0.91770  Biso   1.000  C
  H126     1.0000 0.26990  0.65770  0.90900  Biso   1.000  H
  C183     1.0000 0.23550  0.80630  0.94500  Biso   1.000  C
  H127     1.0000 0.25570  0.81630  0.95410  Biso   1.000  H
  C184     1.0000 0.22100  0.82160  0.91770  Biso   1.000  C
  H128     1.0000 0.23010  0.84230  0.90900  Biso   1.000  H
  Fe8      1.0000 0.25000  0.75000  0.00000  Biso   1.000  Fe
  N43      1.0000 0.27700  0.72300  0.96080  Biso   1.000  N
  C185     1.0000 0.30700  0.69300  0.90270  Biso   1.000  C
  N44      1.0000 0.22300  0.77700  0.96080  Biso   1.000  N
  C186     1.0000 0.19300  0.80700  0.90270  Biso   1.000  C
  N45      1.0000 0.22300  0.77700  0.03920  Biso   1.000  N
  C187     1.0000 0.19300  0.80700  0.09730  Biso   1.000  C
  N46      1.0000 0.27700  0.72300  0.03920  Biso   1.000  N
  C188     1.0000 0.30700  0.69300  0.09730  Biso   1.000  C
  N47      1.0000 0.28920  0.78920  0.00000  Biso   1.000  N
  N48      1.0000 0.21080  0.71080  0.00000  Biso   1.000  N
  C189     1.0000 0.19350  0.68230  0.00000  Biso   1.000  C
  S29      1.0000 0.17810  0.65100  0.00000  Biso   1.000  S
  C190     1.0000 0.30650  0.81770  0.00000  Biso   1.000  C
  S30      1.0000 0.32190  0.84900  0.00000  Biso   1.000  S
  C191     1.0000 0.18230  0.69350  0.00000  Biso   1.000  C
  S31      1.0000 0.15100  0.67810  0.00000  Biso   1.000  S
  C192     1.0000 0.31770  0.80650  0.00000  Biso   1.000  C
  S32      1.0000 0.34900  0.82190  0.00000  Biso   1.000  S
  C193     1.0000 0.05500  0.19370  0.23550  Biso   1.000  C
  H129     1.0000 0.04590  0.18370  0.25570  Biso   1.000  H
  C194     1.0000 0.08230  0.17840  0.22100  Biso   1.000  C
  H130     1.0000 0.09100  0.15770  0.23010  Biso   1.000  H
  C195     1.0000 0.05500  0.30630  0.26450  Biso   1.000  C
  H131     1.0000 0.04590  0.31630  0.24430  Biso   1.000  H
  C196     1.0000 0.08230  0.32160  0.27900  Biso   1.000  C
  H132     1.0000 0.09100  0.34230  0.26990  Biso   1.000  H
  C197     1.0000 0.94500  0.23550  0.19370  Biso   1.000  C
  H133     1.0000 0.95410  0.25570  0.18370  Biso   1.000  H
  C198     1.0000 0.91770  0.22100  0.17840  Biso   1.000  C
  H134     1.0000 0.90900  0.23010  0.15770  Biso   1.000  H
  C199     1.0000 0.94500  0.26450  0.30630  Biso   1.000  C
  H135     1.0000 0.95410  0.24430  0.31630  Biso   1.000  H
  C200     1.0000 0.91770  0.27900  0.32160  Biso   1.000  C
  H136     1.0000 0.90900  0.26990  0.34230  Biso   1.000  H
  C201     1.0000 0.94500  0.30630  0.26450  Biso   1.000  C
  H137     1.0000 0.95410  0.31630  0.24430  Biso   1.000  H
  C202     1.0000 0.91770  0.32160  0.27900  Biso   1.000  C
  H138     1.0000 0.90900  0.34230  0.26990  Biso   1.000  H
  C203     1.0000 0.94500  0.19370  0.23550  Biso   1.000  C
  H139     1.0000 0.95410  0.18370  0.25570  Biso   1.000  H
  C204     1.0000 0.91770  0.17840  0.22100  Biso   1.000  C
  H140     1.0000 0.90900  0.15770  0.23010  Biso   1.000  H
  C205     1.0000 0.05500  0.26450  0.30630  Biso   1.000  C
  H141     1.0000 0.04590  0.24430  0.31630  Biso   1.000  H
  C206     1.0000 0.08230  0.27900  0.32160  Biso   1.000  C
  H142     1.0000 0.09100  0.26990  0.34230  Biso   1.000  H
  C207     1.0000 0.05500  0.23550  0.19370  Biso   1.000  C
  H143     1.0000 0.04590  0.25570  0.18370  Biso   1.000  H
  C208     1.0000 0.08230  0.22100  0.17840  Biso   1.000  C
  H144     1.0000 0.09100  0.23010  0.15770  Biso   1.000  H
  Fe9      1.0000 0.00000  0.25000  0.25000  Biso   1.000  Fe
  N49      1.0000 0.03920  0.22300  0.22300  Biso   1.000  N
  C209     1.0000 0.09730  0.19300  0.19300  Biso   1.000  C
  N50      1.0000 0.03920  0.27700  0.27700  Biso   1.000  N
  C210     1.0000 0.09730  0.30700  0.30700  Biso   1.000  C
  N51      1.0000 0.96080  0.22300  0.22300  Biso   1.000  N
  C211     1.0000 0.90270  0.19300  0.19300  Biso   1.000  C
  N52      1.0000 0.96080  0.27700  0.27700  Biso   1.000  N
  C212     1.0000 0.90270  0.30700  0.30700  Biso   1.000  C
  N53      1.0000 0.00000  0.28920  0.21080  Biso   1.000  N
  N54      1.0000 0.00000  0.21080  0.28920  Biso   1.000  N
  C213     1.0000 0.00000  0.30650  0.18230  Biso   1.000  C
  S33      1.0000 0.00000  0.32190  0.15100  Biso   1.000  S
  C214     1.0000 0.00000  0.19350  0.31770  Biso   1.000  C
  S34      1.0000 0.00000  0.17810  0.34900  Biso   1.000  S
  C215     1.0000 0.00000  0.18230  0.30650  Biso   1.000  C
  S35      1.0000 0.00000  0.15100  0.32190  Biso   1.000  S
  C216     1.0000 0.00000  0.31770  0.19350  Biso   1.000  C
  S36      1.0000 0.00000  0.34900  0.17810  Biso   1.000  S
  C217     1.0000 0.05500  0.69370  0.73550  Biso   1.000  C
  H145     1.0000 0.04590  0.68370  0.75570  Biso   1.000  H
  C218     1.0000 0.08230  0.67840  0.72100  Biso   1.000  C
  H146     1.0000 0.09100  0.65770  0.73010  Biso   1.000  H
  C219     1.0000 0.05500  0.80630  0.76450  Biso   1.000  C
  H147     1.0000 0.04590  0.81630  0.74430  Biso   1.000  H
  C220     1.0000 0.08230  0.82160  0.77900  Biso   1.000  C
  H148     1.0000 0.09100  0.84230  0.76990  Biso   1.000  H
  C221     1.0000 0.94500  0.73550  0.69370  Biso   1.000  C
  H149     1.0000 0.95410  0.75570  0.68370  Biso   1.000  H
  C222     1.0000 0.91770  0.72100  0.67840  Biso   1.000  C
  H150     1.0000 0.90900  0.73010  0.65770  Biso   1.000  H
  C223     1.0000 0.94500  0.76450  0.80630  Biso   1.000  C
  H151     1.0000 0.95410  0.74430  0.81630  Biso   1.000  H
  C224     1.0000 0.91770  0.77900  0.82160  Biso   1.000  C
  H152     1.0000 0.90900  0.76990  0.84230  Biso   1.000  H
  C225     1.0000 0.94500  0.80630  0.76450  Biso   1.000  C
  H153     1.0000 0.95410  0.81630  0.74430  Biso   1.000  H
  C226     1.0000 0.91770  0.82160  0.77900  Biso   1.000  C
  H154     1.0000 0.90900  0.84230  0.76990  Biso   1.000  H
  C227     1.0000 0.94500  0.69370  0.73550  Biso   1.000  C
  H155     1.0000 0.95410  0.68370  0.75570  Biso   1.000  H
  C228     1.0000 0.91770  0.67840  0.72100  Biso   1.000  C
  H156     1.0000 0.90900  0.65770  0.73010  Biso   1.000  H
  C229     1.0000 0.05500  0.76450  0.80630  Biso   1.000  C
  H157     1.0000 0.04590  0.74430  0.81630  Biso   1.000  H
  C230     1.0000 0.08230  0.77900  0.82160  Biso   1.000  C
  H158     1.0000 0.09100  0.76990  0.84230  Biso   1.000  H
  C231     1.0000 0.05500  0.73550  0.69370  Biso   1.000  C
  H159     1.0000 0.04590  0.75570  0.68370  Biso   1.000  H
  C232     1.0000 0.08230  0.72100  0.67840  Biso   1.000  C
  H160     1.0000 0.09100  0.73010  0.65770  Biso   1.000  H
  Fe10     1.0000 0.00000  0.75000  0.75000  Biso   1.000  Fe
  N55      1.0000 0.03920  0.72300  0.72300  Biso   1.000  N
  C233     1.0000 0.09730  0.69300  0.69300  Biso   1.000  C
  N56      1.0000 0.03920  0.77700  0.77700  Biso   1.000  N
  C234     1.0000 0.09730  0.80700  0.80700  Biso   1.000  C
  N57      1.0000 0.96080  0.72300  0.72300  Biso   1.000  N
  C235     1.0000 0.90270  0.69300  0.69300  Biso   1.000  C
  N58      1.0000 0.96080  0.77700  0.77700  Biso   1.000  N
  C236     1.0000 0.90270  0.80700  0.80700  Biso   1.000  C
  N59      1.0000 0.00000  0.71080  0.78920  Biso   1.000  N
  N60      1.0000 0.00000  0.78920  0.71080  Biso   1.000  N
  C237     1.0000 0.00000  0.80650  0.68230  Biso   1.000  C
  S37      1.0000 0.00000  0.82190  0.65100  Biso   1.000  S
  C238     1.0000 0.00000  0.69350  0.81770  Biso   1.000  C
  S38      1.0000 0.00000  0.67810  0.84900  Biso   1.000  S
  C239     1.0000 0.00000  0.68230  0.80650  Biso   1.000  C
  S39      1.0000 0.00000  0.65100  0.82190  Biso   1.000  S
  C240     1.0000 0.00000  0.81770  0.69350  Biso   1.000  C
  S40      1.0000 0.00000  0.84900  0.67810  Biso   1.000  S
  C241     1.0000 0.55500  0.19370  0.73550  Biso   1.000  C
  H161     1.0000 0.54590  0.18370  0.75570  Biso   1.000  H
  C242     1.0000 0.58230  0.17840  0.72100  Biso   1.000  C
  H162     1.0000 0.59100  0.15770  0.73010  Biso   1.000  H
  C243     1.0000 0.55500  0.30630  0.76450  Biso   1.000  C
  H163     1.0000 0.54590  0.31630  0.74430  Biso   1.000  H
  C244     1.0000 0.58230  0.32160  0.77900  Biso   1.000  C
  H164     1.0000 0.59100  0.34230  0.76990  Biso   1.000  H
  C245     1.0000 0.44500  0.23550  0.69370  Biso   1.000  C
  H165     1.0000 0.45410  0.25570  0.68370  Biso   1.000  H
  C246     1.0000 0.41770  0.22100  0.67840  Biso   1.000  C
  H166     1.0000 0.40900  0.23010  0.65770  Biso   1.000  H
  C247     1.0000 0.44500  0.26450  0.80630  Biso   1.000  C
  H167     1.0000 0.45410  0.24430  0.81630  Biso   1.000  H
  C248     1.0000 0.41770  0.27900  0.82160  Biso   1.000  C
  H168     1.0000 0.40900  0.26990  0.84230  Biso   1.000  H
  C249     1.0000 0.44500  0.30630  0.76450  Biso   1.000  C
  H169     1.0000 0.45410  0.31630  0.74430  Biso   1.000  H
  C250     1.0000 0.41770  0.32160  0.77900  Biso   1.000  C
  H170     1.0000 0.40900  0.34230  0.76990  Biso   1.000  H
  C251     1.0000 0.44500  0.19370  0.73550  Biso   1.000  C
  H171     1.0000 0.45410  0.18370  0.75570  Biso   1.000  H
  C252     1.0000 0.41770  0.17840  0.72100  Biso   1.000  C
  H172     1.0000 0.40900  0.15770  0.73010  Biso   1.000  H
  C253     1.0000 0.55500  0.26450  0.80630  Biso   1.000  C
  H173     1.0000 0.54590  0.24430  0.81630  Biso   1.000  H
  C254     1.0000 0.58230  0.27900  0.82160  Biso   1.000  C
  H174     1.0000 0.59100  0.26990  0.84230  Biso   1.000  H
  C255     1.0000 0.55500  0.23550  0.69370  Biso   1.000  C
  H175     1.0000 0.54590  0.25570  0.68370  Biso   1.000  H
  C256     1.0000 0.58230  0.22100  0.67840  Biso   1.000  C
  H176     1.0000 0.59100  0.23010  0.65770  Biso   1.000  H
  Fe11     1.0000 0.50000  0.25000  0.75000  Biso   1.000  Fe
  N61      1.0000 0.53920  0.22300  0.72300  Biso   1.000  N
  C257     1.0000 0.59730  0.19300  0.69300  Biso   1.000  C
  N62      1.0000 0.53920  0.27700  0.77700  Biso   1.000  N
  C258     1.0000 0.59730  0.30700  0.80700  Biso   1.000  C
  N63      1.0000 0.46080  0.22300  0.72300  Biso   1.000  N
  C259     1.0000 0.40270  0.19300  0.69300  Biso   1.000  C
  N64      1.0000 0.46080  0.27700  0.77700  Biso   1.000  N
  C260     1.0000 0.40270  0.30700  0.80700  Biso   1.000  C
  N65      1.0000 0.50000  0.28920  0.71080  Biso   1.000  N
  N66      1.0000 0.50000  0.21080  0.78920  Biso   1.000  N
  C261     1.0000 0.50000  0.30650  0.68230  Biso   1.000  C
  S41      1.0000 0.50000  0.32190  0.65100  Biso   1.000  S
  C262     1.0000 0.50000  0.19350  0.81770  Biso   1.000  C
  S42      1.0000 0.50000  0.17810  0.84900  Biso   1.000  S
  C263     1.0000 0.50000  0.18230  0.80650  Biso   1.000  C
  S43      1.0000 0.50000  0.15100  0.82190  Biso   1.000  S
  C264     1.0000 0.50000  0.31770  0.69350  Biso   1.000  C
  S44      1.0000 0.50000  0.34900  0.67810  Biso   1.000  S
  C265     1.0000 0.55500  0.69370  0.23550  Biso   1.000  C
  H177     1.0000 0.54590  0.68370  0.25570  Biso   1.000  H
  C266     1.0000 0.58230  0.67840  0.22100  Biso   1.000  C
  H178     1.0000 0.59100  0.65770  0.23010  Biso   1.000  H
  C267     1.0000 0.55500  0.80630  0.26450  Biso   1.000  C
  H179     1.0000 0.54590  0.81630  0.24430  Biso   1.000  H
  C268     1.0000 0.58230  0.82160  0.27900  Biso   1.000  C
  H180     1.0000 0.59100  0.84230  0.26990  Biso   1.000  H
  C269     1.0000 0.44500  0.73550  0.19370  Biso   1.000  C
  H181     1.0000 0.45410  0.75570  0.18370  Biso   1.000  H
  C270     1.0000 0.41770  0.72100  0.17840  Biso   1.000  C
  H182     1.0000 0.40900  0.73010  0.15770  Biso   1.000  H
  C271     1.0000 0.44500  0.76450  0.30630  Biso   1.000  C
  H183     1.0000 0.45410  0.74430  0.31630  Biso   1.000  H
  C272     1.0000 0.41770  0.77900  0.32160  Biso   1.000  C
  H184     1.0000 0.40900  0.76990  0.34230  Biso   1.000  H
  C273     1.0000 0.44500  0.80630  0.26450  Biso   1.000  C
  H185     1.0000 0.45410  0.81630  0.24430  Biso   1.000  H
  C274     1.0000 0.41770  0.82160  0.27900  Biso   1.000  C
  H186     1.0000 0.40900  0.84230  0.26990  Biso   1.000  H
  C275     1.0000 0.44500  0.69370  0.23550  Biso   1.000  C
  H187     1.0000 0.45410  0.68370  0.25570  Biso   1.000  H
  C276     1.0000 0.41770  0.67840  0.22100  Biso   1.000  C
  H188     1.0000 0.40900  0.65770  0.23010  Biso   1.000  H
  C277     1.0000 0.55500  0.76450  0.30630  Biso   1.000  C
  H189     1.0000 0.54590  0.74430  0.31630  Biso   1.000  H
  C278     1.0000 0.58230  0.77900  0.32160  Biso   1.000  C
  H190     1.0000 0.59100  0.76990  0.34230  Biso   1.000  H
  C279     1.0000 0.55500  0.73550  0.19370  Biso   1.000  C
  H191     1.0000 0.54590  0.75570  0.18370  Biso   1.000  H
  C280     1.0000 0.58230  0.72100  0.17840  Biso   1.000  C
  H192     1.0000 0.59100  0.73010  0.15770  Biso   1.000  H
  Fe12     1.0000 0.50000  0.75000  0.25000  Biso   1.000  Fe
  N67      1.0000 0.53920  0.72300  0.22300  Biso   1.000  N
  C281     1.0000 0.59730  0.69300  0.19300  Biso   1.000  C
  N68      1.0000 0.53920  0.77700  0.27700  Biso   1.000  N
  C282     1.0000 0.59730  0.80700  0.30700  Biso   1.000  C
  N69      1.0000 0.46080  0.72300  0.22300  Biso   1.000  N
  C283     1.0000 0.40270  0.69300  0.19300  Biso   1.000  C
  N70      1.0000 0.46080  0.77700  0.27700  Biso   1.000  N
  C284     1.0000 0.40270  0.80700  0.30700  Biso   1.000  C
  N71      1.0000 0.50000  0.71080  0.28920  Biso   1.000  N
  N72      1.0000 0.50000  0.78920  0.21080  Biso   1.000  N
  C285     1.0000 0.50000  0.80650  0.18230  Biso   1.000  C
  S45      1.0000 0.50000  0.82190  0.15100  Biso   1.000  S
  C286     1.0000 0.50000  0.69350  0.31770  Biso   1.000  C
  S46      1.0000 0.50000  0.67810  0.34900  Biso   1.000  S
  C287     1.0000 0.50000  0.68230  0.30650  Biso   1.000  C
  S47      1.0000 0.50000  0.65100  0.32190  Biso   1.000  S
  C288     1.0000 0.50000  0.81770  0.19350  Biso   1.000  C
  S48      1.0000 0.50000  0.84900  0.17810  Biso   1.000  S
  C289     1.0000 0.94500  0.80630  0.23550  Biso   1.000  C
  H193     1.0000 0.95410  0.81630  0.25570  Biso   1.000  H
  C290     1.0000 0.91770  0.82160  0.22100  Biso   1.000  C
  H194     1.0000 0.90900  0.84230  0.23010  Biso   1.000  H
  C291     1.0000 0.94500  0.69370  0.26450  Biso   1.000  C
  H195     1.0000 0.95410  0.68370  0.24430  Biso   1.000  H
  C292     1.0000 0.91770  0.67840  0.27900  Biso   1.000  C
  H196     1.0000 0.90900  0.65770  0.26990  Biso   1.000  H
  C293     1.0000 0.05500  0.73550  0.30630  Biso   1.000  C
  H197     1.0000 0.04590  0.75570  0.31630  Biso   1.000  H
  C294     1.0000 0.08230  0.72100  0.32160  Biso   1.000  C
  H198     1.0000 0.09100  0.73010  0.34230  Biso   1.000  H
  C295     1.0000 0.05500  0.76450  0.19370  Biso   1.000  C
  H199     1.0000 0.04590  0.74430  0.18370  Biso   1.000  H
  C296     1.0000 0.08230  0.77900  0.17840  Biso   1.000  C
  H200     1.0000 0.09100  0.76990  0.15770  Biso   1.000  H
  C297     1.0000 0.05500  0.69370  0.26450  Biso   1.000  C
  H201     1.0000 0.04590  0.68370  0.24430  Biso   1.000  H
  C298     1.0000 0.08230  0.67840  0.27900  Biso   1.000  C
  H202     1.0000 0.09100  0.65770  0.26990  Biso   1.000  H
  C299     1.0000 0.05500  0.80630  0.23550  Biso   1.000  C
  H203     1.0000 0.04590  0.81630  0.25570  Biso   1.000  H
  C300     1.0000 0.08230  0.82160  0.22100  Biso   1.000  C
  H204     1.0000 0.09100  0.84230  0.23010  Biso   1.000  H
  C301     1.0000 0.94500  0.76450  0.19370  Biso   1.000  C
  H205     1.0000 0.95410  0.74430  0.18370  Biso   1.000  H
  C302     1.0000 0.91770  0.77900  0.17840  Biso   1.000  C
  H206     1.0000 0.90900  0.76990  0.15770  Biso   1.000  H
  C303     1.0000 0.94500  0.73550  0.30630  Biso   1.000  C
  H207     1.0000 0.95410  0.75570  0.31630  Biso   1.000  H
  C304     1.0000 0.91770  0.72100  0.32160  Biso   1.000  C
  H208     1.0000 0.90900  0.73010  0.34230  Biso   1.000  H
  Fe13     1.0000 0.00000  0.75000  0.25000  Biso   1.000  Fe
  N73      1.0000 0.96080  0.77700  0.22300  Biso   1.000  N
  C305     1.0000 0.90270  0.80700  0.19300  Biso   1.000  C
  N74      1.0000 0.96080  0.72300  0.27700  Biso   1.000  N
  C306     1.0000 0.90270  0.69300  0.30700  Biso   1.000  C
  N75      1.0000 0.03920  0.72300  0.27700  Biso   1.000  N
  C307     1.0000 0.09730  0.69300  0.30700  Biso   1.000  C
  N76      1.0000 0.03920  0.77700  0.22300  Biso   1.000  N
  C308     1.0000 0.09730  0.80700  0.19300  Biso   1.000  C
  N77      1.0000 0.00000  0.71080  0.21080  Biso   1.000  N
  N78      1.0000 0.00000  0.78920  0.28920  Biso   1.000  N
  C309     1.0000 0.00000  0.69350  0.18230  Biso   1.000  C
  S49      1.0000 0.00000  0.67810  0.15100  Biso   1.000  S
  C310     1.0000 0.00000  0.80650  0.31770  Biso   1.000  C
  S50      1.0000 0.00000  0.82190  0.34900  Biso   1.000  S
  C311     1.0000 0.00000  0.68230  0.19350  Biso   1.000  C
  S51      1.0000 0.00000  0.65100  0.17810  Biso   1.000  S
  C312     1.0000 0.00000  0.81770  0.30650  Biso   1.000  C
  S52      1.0000 0.00000  0.84900  0.32190  Biso   1.000  S
  C313     1.0000 0.94500  0.30630  0.73550  Biso   1.000  C
  H209     1.0000 0.95410  0.31630  0.75570  Biso   1.000  H
  C314     1.0000 0.91770  0.32160  0.72100  Biso   1.000  C
  H210     1.0000 0.90900  0.34230  0.73010  Biso   1.000  H
  C315     1.0000 0.94500  0.19370  0.76450  Biso   1.000  C
  H211     1.0000 0.95410  0.18370  0.74430  Biso   1.000  H
  C316     1.0000 0.91770  0.17840  0.77900  Biso   1.000  C
  H212     1.0000 0.90900  0.15770  0.76990  Biso   1.000  H
  C317     1.0000 0.05500  0.23550  0.80630  Biso   1.000  C
  H213     1.0000 0.04590  0.25570  0.81630  Biso   1.000  H
  C318     1.0000 0.08230  0.22100  0.82160  Biso   1.000  C
  H214     1.0000 0.09100  0.23010  0.84230  Biso   1.000  H
  C319     1.0000 0.05500  0.26450  0.69370  Biso   1.000  C
  H215     1.0000 0.04590  0.24430  0.68370  Biso   1.000  H
  C320     1.0000 0.08230  0.27900  0.67840  Biso   1.000  C
  H216     1.0000 0.09100  0.26990  0.65770  Biso   1.000  H
  C321     1.0000 0.05500  0.19370  0.76450  Biso   1.000  C
  H217     1.0000 0.04590  0.18370  0.74430  Biso   1.000  H
  C322     1.0000 0.08230  0.17840  0.77900  Biso   1.000  C
  H218     1.0000 0.09100  0.15770  0.76990  Biso   1.000  H
  C323     1.0000 0.05500  0.30630  0.73550  Biso   1.000  C
  H219     1.0000 0.04590  0.31630  0.75570  Biso   1.000  H
  C324     1.0000 0.08230  0.32160  0.72100  Biso   1.000  C
  H220     1.0000 0.09100  0.34230  0.73010  Biso   1.000  H
  C325     1.0000 0.94500  0.26450  0.69370  Biso   1.000  C
  H221     1.0000 0.95410  0.24430  0.68370  Biso   1.000  H
  C326     1.0000 0.91770  0.27900  0.67840  Biso   1.000  C
  H222     1.0000 0.90900  0.26990  0.65770  Biso   1.000  H
  C327     1.0000 0.94500  0.23550  0.80630  Biso   1.000  C
  H223     1.0000 0.95410  0.25570  0.81630  Biso   1.000  H
  C328     1.0000 0.91770  0.22100  0.82160  Biso   1.000  C
  H224     1.0000 0.90900  0.23010  0.84230  Biso   1.000  H
  Fe14     1.0000 0.00000  0.25000  0.75000  Biso   1.000  Fe
  N79      1.0000 0.96080  0.27700  0.72300  Biso   1.000  N
  C329     1.0000 0.90270  0.30700  0.69300  Biso   1.000  C
  N80      1.0000 0.96080  0.22300  0.77700  Biso   1.000  N
  C330     1.0000 0.90270  0.19300  0.80700  Biso   1.000  C
  N81      1.0000 0.03920  0.22300  0.77700  Biso   1.000  N
  C331     1.0000 0.09730  0.19300  0.80700  Biso   1.000  C
  N82      1.0000 0.03920  0.27700  0.72300  Biso   1.000  N
  C332     1.0000 0.09730  0.30700  0.69300  Biso   1.000  C
  N83      1.0000 0.00000  0.28920  0.78920  Biso   1.000  N
  N84      1.0000 0.00000  0.21080  0.71080  Biso   1.000  N
  C333     1.0000 0.00000  0.19350  0.68230  Biso   1.000  C
  S53      1.0000 0.00000  0.17810  0.65100  Biso   1.000  S
  C334     1.0000 0.00000  0.30650  0.81770  Biso   1.000  C
  S54      1.0000 0.00000  0.32190  0.84900  Biso   1.000  S
  C335     1.0000 0.00000  0.18230  0.69350  Biso   1.000  C
  S55      1.0000 0.00000  0.15100  0.67810  Biso   1.000  S
  C336     1.0000 0.00000  0.31770  0.80650  Biso   1.000  C
  S56      1.0000 0.00000  0.34900  0.82190  Biso   1.000  S
  C337     1.0000 0.44500  0.80630  0.73550  Biso   1.000  C
  H225     1.0000 0.45410  0.81630  0.75570  Biso   1.000  H
  C338     1.0000 0.41770  0.82160  0.72100  Biso   1.000  C
  H226     1.0000 0.40900  0.84230  0.73010  Biso   1.000  H
  C339     1.0000 0.44500  0.69370  0.76450  Biso   1.000  C
  H227     1.0000 0.45410  0.68370  0.74430  Biso   1.000  H
  C340     1.0000 0.41770  0.67840  0.77900  Biso   1.000  C
  H228     1.0000 0.40900  0.65770  0.76990  Biso   1.000  H
  C341     1.0000 0.55500  0.73550  0.80630  Biso   1.000  C
  H229     1.0000 0.54590  0.75570  0.81630  Biso   1.000  H
  C342     1.0000 0.58230  0.72100  0.82160  Biso   1.000  C
  H230     1.0000 0.59100  0.73010  0.84230  Biso   1.000  H
  C343     1.0000 0.55500  0.76450  0.69370  Biso   1.000  C
  H231     1.0000 0.54590  0.74430  0.68370  Biso   1.000  H
  C344     1.0000 0.58230  0.77900  0.67840  Biso   1.000  C
  H232     1.0000 0.59100  0.76990  0.65770  Biso   1.000  H
  C345     1.0000 0.55500  0.69370  0.76450  Biso   1.000  C
  H233     1.0000 0.54590  0.68370  0.74430  Biso   1.000  H
  C346     1.0000 0.58230  0.67840  0.77900  Biso   1.000  C
  H234     1.0000 0.59100  0.65770  0.76990  Biso   1.000  H
  C347     1.0000 0.55500  0.80630  0.73550  Biso   1.000  C
  H235     1.0000 0.54590  0.81630  0.75570  Biso   1.000  H
  C348     1.0000 0.58230  0.82160  0.72100  Biso   1.000  C
  H236     1.0000 0.59100  0.84230  0.73010  Biso   1.000  H
  C349     1.0000 0.44500  0.76450  0.69370  Biso   1.000  C
  H237     1.0000 0.45410  0.74430  0.68370  Biso   1.000  H
  C350     1.0000 0.41770  0.77900  0.67840  Biso   1.000  C
  H238     1.0000 0.40900  0.76990  0.65770  Biso   1.000  H
  C351     1.0000 0.44500  0.73550  0.80630  Biso   1.000  C
  H239     1.0000 0.45410  0.75570  0.81630  Biso   1.000  H
  C352     1.0000 0.41770  0.72100  0.82160  Biso   1.000  C
  H240     1.0000 0.40900  0.73010  0.84230  Biso   1.000  H
  Fe15     1.0000 0.50000  0.75000  0.75000  Biso   1.000  Fe
  N85      1.0000 0.46080  0.77700  0.72300  Biso   1.000  N
  C353     1.0000 0.40270  0.80700  0.69300  Biso   1.000  C
  N86      1.0000 0.46080  0.72300  0.77700  Biso   1.000  N
  C354     1.0000 0.40270  0.69300  0.80700  Biso   1.000  C
  N87      1.0000 0.53920  0.72300  0.77700  Biso   1.000  N
  C355     1.0000 0.59730  0.69300  0.80700  Biso   1.000  C
  N88      1.0000 0.53920  0.77700  0.72300  Biso   1.000  N
  C356     1.0000 0.59730  0.80700  0.69300  Biso   1.000  C
  N89      1.0000 0.50000  0.71080  0.71080  Biso   1.000  N
  N90      1.0000 0.50000  0.78920  0.78920  Biso   1.000  N
  C357     1.0000 0.50000  0.69350  0.68230  Biso   1.000  C
  S57      1.0000 0.50000  0.67810  0.65100  Biso   1.000  S
  C358     1.0000 0.50000  0.80650  0.81770  Biso   1.000  C
  S58      1.0000 0.50000  0.82190  0.84900  Biso   1.000  S
  C359     1.0000 0.50000  0.68230  0.69350  Biso   1.000  C
  S59      1.0000 0.50000  0.65100  0.67810  Biso   1.000  S
  C360     1.0000 0.50000  0.81770  0.80650  Biso   1.000  C
  S60      1.0000 0.50000  0.84900  0.82190  Biso   1.000  S
  C361     1.0000 0.44500  0.30630  0.23550  Biso   1.000  C
  H241     1.0000 0.45410  0.31630  0.25570  Biso   1.000  H
  C362     1.0000 0.41770  0.32160  0.22100  Biso   1.000  C
  H242     1.0000 0.40900  0.34230  0.23010  Biso   1.000  H
  C363     1.0000 0.44500  0.19370  0.26450  Biso   1.000  C
  H243     1.0000 0.45410  0.18370  0.24430  Biso   1.000  H
  C364     1.0000 0.41770  0.17840  0.27900  Biso   1.000  C
  H244     1.0000 0.40900  0.15770  0.26990  Biso   1.000  H
  C365     1.0000 0.55500  0.23550  0.30630  Biso   1.000  C
  H245     1.0000 0.54590  0.25570  0.31630  Biso   1.000  H
  C366     1.0000 0.58230  0.22100  0.32160  Biso   1.000  C
  H246     1.0000 0.59100  0.23010  0.34230  Biso   1.000  H
  C367     1.0000 0.55500  0.26450  0.19370  Biso   1.000  C
  H247     1.0000 0.54590  0.24430  0.18370  Biso   1.000  H
  C368     1.0000 0.58230  0.27900  0.17840  Biso   1.000  C
  H248     1.0000 0.59100  0.26990  0.15770  Biso   1.000  H
  C369     1.0000 0.55500  0.19370  0.26450  Biso   1.000  C
  H249     1.0000 0.54590  0.18370  0.24430  Biso   1.000  H
  C370     1.0000 0.58230  0.17840  0.27900  Biso   1.000  C
  H250     1.0000 0.59100  0.15770  0.26990  Biso   1.000  H
  C371     1.0000 0.55500  0.30630  0.23550  Biso   1.000  C
  H251     1.0000 0.54590  0.31630  0.25570  Biso   1.000  H
  C372     1.0000 0.58230  0.32160  0.22100  Biso   1.000  C
  H252     1.0000 0.59100  0.34230  0.23010  Biso   1.000  H
  C373     1.0000 0.44500  0.26450  0.19370  Biso   1.000  C
  H253     1.0000 0.45410  0.24430  0.18370  Biso   1.000  H
  C374     1.0000 0.41770  0.27900  0.17840  Biso   1.000  C
  H254     1.0000 0.40900  0.26990  0.15770  Biso   1.000  H
  C375     1.0000 0.44500  0.23550  0.30630  Biso   1.000  C
  H255     1.0000 0.45410  0.25570  0.31630  Biso   1.000  H
  C376     1.0000 0.41770  0.22100  0.32160  Biso   1.000  C
  H256     1.0000 0.40900  0.23010  0.34230  Biso   1.000  H
  Fe16     1.0000 0.50000  0.25000  0.25000  Biso   1.000  Fe
  N91      1.0000 0.46080  0.27700  0.22300  Biso   1.000  N
  C377     1.0000 0.40270  0.30700  0.19300  Biso   1.000  C
  N92      1.0000 0.46080  0.22300  0.27700  Biso   1.000  N
  C378     1.0000 0.40270  0.19300  0.30700  Biso   1.000  C
  N93      1.0000 0.53920  0.22300  0.27700  Biso   1.000  N
  C379     1.0000 0.59730  0.19300  0.30700  Biso   1.000  C
  N94      1.0000 0.53920  0.27700  0.22300  Biso   1.000  N
  C380     1.0000 0.59730  0.30700  0.19300  Biso   1.000  C
  N95      1.0000 0.50000  0.21080  0.21080  Biso   1.000  N
  N96      1.0000 0.50000  0.28920  0.28920  Biso   1.000  N
  C381     1.0000 0.50000  0.19350  0.18230  Biso   1.000  C
  S61      1.0000 0.50000  0.17810  0.15100  Biso   1.000  S
  C382     1.0000 0.50000  0.30650  0.31770  Biso   1.000  C
  S62      1.0000 0.50000  0.32190  0.34900  Biso   1.000  S
  C383     1.0000 0.50000  0.18230  0.19350  Biso   1.000  C
  S63      1.0000 0.50000  0.15100  0.17810  Biso   1.000  S
  C384     1.0000 0.50000  0.31770  0.30650  Biso   1.000  C
  S64      1.0000 0.50000  0.34900  0.32190  Biso   1.000  S
  C385     1.0000 0.23550  0.05500  0.19370  Biso   1.000  C
  H257     1.0000 0.25570  0.04590  0.18370  Biso   1.000  H
  C386     1.0000 0.22100  0.08230  0.17840  Biso   1.000  C
  H258     1.0000 0.23010  0.09100  0.15770  Biso   1.000  H
  C387     1.0000 0.26450  0.05500  0.30630  Biso   1.000  C
  H259     1.0000 0.24430  0.04590  0.31630  Biso   1.000  H
  C388     1.0000 0.27900  0.08230  0.32160  Biso   1.000  C
  H260     1.0000 0.26990  0.09100  0.34230  Biso   1.000  H
  C389     1.0000 0.30630  0.94500  0.26450  Biso   1.000  C
  H261     1.0000 0.31630  0.95410  0.24430  Biso   1.000  H
  C390     1.0000 0.32160  0.91770  0.27900  Biso   1.000  C
  H262     1.0000 0.34230  0.90900  0.26990  Biso   1.000  H
  C391     1.0000 0.19370  0.94500  0.23550  Biso   1.000  C
  H263     1.0000 0.18370  0.95410  0.25570  Biso   1.000  H
  C392     1.0000 0.17840  0.91770  0.22100  Biso   1.000  C
  H264     1.0000 0.15770  0.90900  0.23010  Biso   1.000  H
  C393     1.0000 0.26450  0.94500  0.30630  Biso   1.000  C
  H265     1.0000 0.24430  0.95410  0.31630  Biso   1.000  H
  C394     1.0000 0.27900  0.91770  0.32160  Biso   1.000  C
  H266     1.0000 0.26990  0.90900  0.34230  Biso   1.000  H
  C395     1.0000 0.23550  0.94500  0.19370  Biso   1.000  C
  H267     1.0000 0.25570  0.95410  0.18370  Biso   1.000  H
  C396     1.0000 0.22100  0.91770  0.17840  Biso   1.000  C
  H268     1.0000 0.23010  0.90900  0.15770  Biso   1.000  H
  C397     1.0000 0.19370  0.05500  0.23550  Biso   1.000  C
  H269     1.0000 0.18370  0.04590  0.25570  Biso   1.000  H
  C398     1.0000 0.17840  0.08230  0.22100  Biso   1.000  C
  H270     1.0000 0.15770  0.09100  0.23010  Biso   1.000  H
  C399     1.0000 0.30630  0.05500  0.26450  Biso   1.000  C
  H271     1.0000 0.31630  0.04590  0.24430  Biso   1.000  H
  C400     1.0000 0.32160  0.08230  0.27900  Biso   1.000  C
  H272     1.0000 0.34230  0.09100  0.26990  Biso   1.000  H
  Fe17     1.0000 0.25000  0.00000  0.25000  Biso   1.000  Fe
  N97      1.0000 0.22300  0.03920  0.22300  Biso   1.000  N
  C401     1.0000 0.19300  0.09730  0.19300  Biso   1.000  C
  N98      1.0000 0.27700  0.03920  0.27700  Biso   1.000  N
  C402     1.0000 0.30700  0.09730  0.30700  Biso   1.000  C
  N99      1.0000 0.27700  0.96080  0.27700  Biso   1.000  N
  C403     1.0000 0.30700  0.90270  0.30700  Biso   1.000  C
  N100     1.0000 0.22300  0.96080  0.22300  Biso   1.000  N
  C404     1.0000 0.19300  0.90270  0.19300  Biso   1.000  C
  N101     1.0000 0.21080  0.00000  0.28920  Biso   1.000  N
  N102     1.0000 0.28920  0.00000  0.21080  Biso   1.000  N
  C405     1.0000 0.18230  0.00000  0.30650  Biso   1.000  C
  S65      1.0000 0.15100  0.00000  0.32190  Biso   1.000  S
  C406     1.0000 0.31770  0.00000  0.19350  Biso   1.000  C
  S66      1.0000 0.34900  0.00000  0.17810  Biso   1.000  S
  C407     1.0000 0.19350  0.00000  0.31770  Biso   1.000  C
  S67      1.0000 0.17810  0.00000  0.34900  Biso   1.000  S
  C408     1.0000 0.30650  0.00000  0.18230  Biso   1.000  C
  S68      1.0000 0.32190  0.00000  0.15100  Biso   1.000  S
  C409     1.0000 0.23550  0.55500  0.69370  Biso   1.000  C
  H273     1.0000 0.25570  0.54590  0.68370  Biso   1.000  H
  C410     1.0000 0.22100  0.58230  0.67840  Biso   1.000  C
  H274     1.0000 0.23010  0.59100  0.65770  Biso   1.000  H
  C411     1.0000 0.26450  0.55500  0.80630  Biso   1.000  C
  H275     1.0000 0.24430  0.54590  0.81630  Biso   1.000  H
  C412     1.0000 0.27900  0.58230  0.82160  Biso   1.000  C
  H276     1.0000 0.26990  0.59100  0.84230  Biso   1.000  H
  C413     1.0000 0.30630  0.44500  0.76450  Biso   1.000  C
  H277     1.0000 0.31630  0.45410  0.74430  Biso   1.000  H
  C414     1.0000 0.32160  0.41770  0.77900  Biso   1.000  C
  H278     1.0000 0.34230  0.40900  0.76990  Biso   1.000  H
  C415     1.0000 0.19370  0.44500  0.73550  Biso   1.000  C
  H279     1.0000 0.18370  0.45410  0.75570  Biso   1.000  H
  C416     1.0000 0.17840  0.41770  0.72100  Biso   1.000  C
  H280     1.0000 0.15770  0.40900  0.73010  Biso   1.000  H
  C417     1.0000 0.26450  0.44500  0.80630  Biso   1.000  C
  H281     1.0000 0.24430  0.45410  0.81630  Biso   1.000  H
  C418     1.0000 0.27900  0.41770  0.82160  Biso   1.000  C
  H282     1.0000 0.26990  0.40900  0.84230  Biso   1.000  H
  C419     1.0000 0.23550  0.44500  0.69370  Biso   1.000  C
  H283     1.0000 0.25570  0.45410  0.68370  Biso   1.000  H
  C420     1.0000 0.22100  0.41770  0.67840  Biso   1.000  C
  H284     1.0000 0.23010  0.40900  0.65770  Biso   1.000  H
  C421     1.0000 0.19370  0.55500  0.73550  Biso   1.000  C
  H285     1.0000 0.18370  0.54590  0.75570  Biso   1.000  H
  C422     1.0000 0.17840  0.58230  0.72100  Biso   1.000  C
  H286     1.0000 0.15770  0.59100  0.73010  Biso   1.000  H
  C423     1.0000 0.30630  0.55500  0.76450  Biso   1.000  C
  H287     1.0000 0.31630  0.54590  0.74430  Biso   1.000  H
  C424     1.0000 0.32160  0.58230  0.77900  Biso   1.000  C
  H288     1.0000 0.34230  0.59100  0.76990  Biso   1.000  H
  Fe18     1.0000 0.25000  0.50000  0.75000  Biso   1.000  Fe
  N103     1.0000 0.22300  0.53920  0.72300  Biso   1.000  N
  C425     1.0000 0.19300  0.59730  0.69300  Biso   1.000  C
  N104     1.0000 0.27700  0.53920  0.77700  Biso   1.000  N
  C426     1.0000 0.30700  0.59730  0.80700  Biso   1.000  C
  N105     1.0000 0.27700  0.46080  0.77700  Biso   1.000  N
  C427     1.0000 0.30700  0.40270  0.80700  Biso   1.000  C
  N106     1.0000 0.22300  0.46080  0.72300  Biso   1.000  N
  C428     1.0000 0.19300  0.40270  0.69300  Biso   1.000  C
  N107     1.0000 0.21080  0.50000  0.78920  Biso   1.000  N
  N108     1.0000 0.28920  0.50000  0.71080  Biso   1.000  N
  C429     1.0000 0.18230  0.50000  0.80650  Biso   1.000  C
  S69      1.0000 0.15100  0.50000  0.82190  Biso   1.000  S
  C430     1.0000 0.31770  0.50000  0.69350  Biso   1.000  C
  S70      1.0000 0.34900  0.50000  0.67810  Biso   1.000  S
  C431     1.0000 0.19350  0.50000  0.81770  Biso   1.000  C
  S71      1.0000 0.17810  0.50000  0.84900  Biso   1.000  S
  C432     1.0000 0.30650  0.50000  0.68230  Biso   1.000  C
  S72      1.0000 0.32190  0.50000  0.65100  Biso   1.000  S
  C433     1.0000 0.73550  0.05500  0.69370  Biso   1.000  C
  H289     1.0000 0.75570  0.04590  0.68370  Biso   1.000  H
  C434     1.0000 0.72100  0.08230  0.67840  Biso   1.000  C
  H290     1.0000 0.73010  0.09100  0.65770  Biso   1.000  H
  C435     1.0000 0.76450  0.05500  0.80630  Biso   1.000  C
  H291     1.0000 0.74430  0.04590  0.81630  Biso   1.000  H
  C436     1.0000 0.77900  0.08230  0.82160  Biso   1.000  C
  H292     1.0000 0.76990  0.09100  0.84230  Biso   1.000  H
  C437     1.0000 0.80630  0.94500  0.76450  Biso   1.000  C
  H293     1.0000 0.81630  0.95410  0.74430  Biso   1.000  H
  C438     1.0000 0.82160  0.91770  0.77900  Biso   1.000  C
  H294     1.0000 0.84230  0.90900  0.76990  Biso   1.000  H
  C439     1.0000 0.69370  0.94500  0.73550  Biso   1.000  C
  H295     1.0000 0.68370  0.95410  0.75570  Biso   1.000  H
  C440     1.0000 0.67840  0.91770  0.72100  Biso   1.000  C
  H296     1.0000 0.65770  0.90900  0.73010  Biso   1.000  H
  C441     1.0000 0.76450  0.94500  0.80630  Biso   1.000  C
  H297     1.0000 0.74430  0.95410  0.81630  Biso   1.000  H
  C442     1.0000 0.77900  0.91770  0.82160  Biso   1.000  C
  H298     1.0000 0.76990  0.90900  0.84230  Biso   1.000  H
  C443     1.0000 0.73550  0.94500  0.69370  Biso   1.000  C
  H299     1.0000 0.75570  0.95410  0.68370  Biso   1.000  H
  C444     1.0000 0.72100  0.91770  0.67840  Biso   1.000  C
  H300     1.0000 0.73010  0.90900  0.65770  Biso   1.000  H
  C445     1.0000 0.69370  0.05500  0.73550  Biso   1.000  C
  H301     1.0000 0.68370  0.04590  0.75570  Biso   1.000  H
  C446     1.0000 0.67840  0.08230  0.72100  Biso   1.000  C
  H302     1.0000 0.65770  0.09100  0.73010  Biso   1.000  H
  C447     1.0000 0.80630  0.05500  0.76450  Biso   1.000  C
  H303     1.0000 0.81630  0.04590  0.74430  Biso   1.000  H
  C448     1.0000 0.82160  0.08230  0.77900  Biso   1.000  C
  H304     1.0000 0.84230  0.09100  0.76990  Biso   1.000  H
  Fe19     1.0000 0.75000  0.00000  0.75000  Biso   1.000  Fe
  N109     1.0000 0.72300  0.03920  0.72300  Biso   1.000  N
  C449     1.0000 0.69300  0.09730  0.69300  Biso   1.000  C
  N110     1.0000 0.77700  0.03920  0.77700  Biso   1.000  N
  C450     1.0000 0.80700  0.09730  0.80700  Biso   1.000  C
  N111     1.0000 0.77700  0.96080  0.77700  Biso   1.000  N
  C451     1.0000 0.80700  0.90270  0.80700  Biso   1.000  C
  N112     1.0000 0.72300  0.96080  0.72300  Biso   1.000  N
  C452     1.0000 0.69300  0.90270  0.69300  Biso   1.000  C
  N113     1.0000 0.78920  0.00000  0.71080  Biso   1.000  N
  N114     1.0000 0.71080  0.00000  0.78920  Biso   1.000  N
  C453     1.0000 0.68230  0.00000  0.80650  Biso   1.000  C
  S73      1.0000 0.65100  0.00000  0.82190  Biso   1.000  S
  C454     1.0000 0.81770  0.00000  0.69350  Biso   1.000  C
  S74      1.0000 0.84900  0.00000  0.67810  Biso   1.000  S
  C455     1.0000 0.69350  0.00000  0.81770  Biso   1.000  C
  S75      1.0000 0.67810  0.00000  0.84900  Biso   1.000  S
  C456     1.0000 0.80650  0.00000  0.68230  Biso   1.000  C
  S76      1.0000 0.82190  0.00000  0.65100  Biso   1.000  S
  C457     1.0000 0.73550  0.55500  0.19370  Biso   1.000  C
  H305     1.0000 0.75570  0.54590  0.18370  Biso   1.000  H
  C458     1.0000 0.72100  0.58230  0.17840  Biso   1.000  C
  H306     1.0000 0.73010  0.59100  0.15770  Biso   1.000  H
  C459     1.0000 0.76450  0.55500  0.30630  Biso   1.000  C
  H307     1.0000 0.74430  0.54590  0.31630  Biso   1.000  H
  C460     1.0000 0.77900  0.58230  0.32160  Biso   1.000  C
  H308     1.0000 0.76990  0.59100  0.34230  Biso   1.000  H
  C461     1.0000 0.80630  0.44500  0.26450  Biso   1.000  C
  H309     1.0000 0.81630  0.45410  0.24430  Biso   1.000  H
  C462     1.0000 0.82160  0.41770  0.27900  Biso   1.000  C
  H310     1.0000 0.84230  0.40900  0.26990  Biso   1.000  H
  C463     1.0000 0.69370  0.44500  0.23550  Biso   1.000  C
  H311     1.0000 0.68370  0.45410  0.25570  Biso   1.000  H
  C464     1.0000 0.67840  0.41770  0.22100  Biso   1.000  C
  H312     1.0000 0.65770  0.40900  0.23010  Biso   1.000  H
  C465     1.0000 0.76450  0.44500  0.30630  Biso   1.000  C
  H313     1.0000 0.74430  0.45410  0.31630  Biso   1.000  H
  C466     1.0000 0.77900  0.41770  0.32160  Biso   1.000  C
  H314     1.0000 0.76990  0.40900  0.34230  Biso   1.000  H
  C467     1.0000 0.73550  0.44500  0.19370  Biso   1.000  C
  H315     1.0000 0.75570  0.45410  0.18370  Biso   1.000  H
  C468     1.0000 0.72100  0.41770  0.17840  Biso   1.000  C
  H316     1.0000 0.73010  0.40900  0.15770  Biso   1.000  H
  C469     1.0000 0.69370  0.55500  0.23550  Biso   1.000  C
  H317     1.0000 0.68370  0.54590  0.25570  Biso   1.000  H
  C470     1.0000 0.67840  0.58230  0.22100  Biso   1.000  C
  H318     1.0000 0.65770  0.59100  0.23010  Biso   1.000  H
  C471     1.0000 0.80630  0.55500  0.26450  Biso   1.000  C
  H319     1.0000 0.81630  0.54590  0.24430  Biso   1.000  H
  C472     1.0000 0.82160  0.58230  0.27900  Biso   1.000  C
  H320     1.0000 0.84230  0.59100  0.26990  Biso   1.000  H
  Fe20     1.0000 0.75000  0.50000  0.25000  Biso   1.000  Fe
  N115     1.0000 0.72300  0.53920  0.22300  Biso   1.000  N
  C473     1.0000 0.69300  0.59730  0.19300  Biso   1.000  C
  N116     1.0000 0.77700  0.53920  0.27700  Biso   1.000  N
  C474     1.0000 0.80700  0.59730  0.30700  Biso   1.000  C
  N117     1.0000 0.77700  0.46080  0.27700  Biso   1.000  N
  C475     1.0000 0.80700  0.40270  0.30700  Biso   1.000  C
  N118     1.0000 0.72300  0.46080  0.22300  Biso   1.000  N
  C476     1.0000 0.69300  0.40270  0.19300  Biso   1.000  C
  N119     1.0000 0.78920  0.50000  0.21080  Biso   1.000  N
  N120     1.0000 0.71080  0.50000  0.28920  Biso   1.000  N
  C477     1.0000 0.68230  0.50000  0.30650  Biso   1.000  C
  S77      1.0000 0.65100  0.50000  0.32190  Biso   1.000  S
  C478     1.0000 0.81770  0.50000  0.19350  Biso   1.000  C
  S78      1.0000 0.84900  0.50000  0.17810  Biso   1.000  S
  C479     1.0000 0.69350  0.50000  0.31770  Biso   1.000  C
  S79      1.0000 0.67810  0.50000  0.34900  Biso   1.000  S
  C480     1.0000 0.80650  0.50000  0.18230  Biso   1.000  C
  S80      1.0000 0.82190  0.50000  0.15100  Biso   1.000  S
  C481     1.0000 0.23550  0.94500  0.80630  Biso   1.000  C
  H321     1.0000 0.25570  0.95410  0.81630  Biso   1.000  H
  C482     1.0000 0.22100  0.91770  0.82160  Biso   1.000  C
  H322     1.0000 0.23010  0.90900  0.84230  Biso   1.000  H
  C483     1.0000 0.26450  0.94500  0.69370  Biso   1.000  C
  H323     1.0000 0.24430  0.95410  0.68370  Biso   1.000  H
  C484     1.0000 0.27900  0.91770  0.67840  Biso   1.000  C
  H324     1.0000 0.26990  0.90900  0.65770  Biso   1.000  H
  C485     1.0000 0.19370  0.05500  0.76450  Biso   1.000  C
  H325     1.0000 0.18370  0.04590  0.74430  Biso   1.000  H
  C486     1.0000 0.17840  0.08230  0.77900  Biso   1.000  C
  H326     1.0000 0.15770  0.09100  0.76990  Biso   1.000  H
  C487     1.0000 0.30630  0.05500  0.73550  Biso   1.000  C
  H327     1.0000 0.31630  0.04590  0.75570  Biso   1.000  H
  C488     1.0000 0.32160  0.08230  0.72100  Biso   1.000  C
  H328     1.0000 0.34230  0.09100  0.73010  Biso   1.000  H
  C489     1.0000 0.26450  0.05500  0.69370  Biso   1.000  C
  H329     1.0000 0.24430  0.04590  0.68370  Biso   1.000  H
  C490     1.0000 0.27900  0.08230  0.67840  Biso   1.000  C
  H330     1.0000 0.26990  0.09100  0.65770  Biso   1.000  H
  C491     1.0000 0.23550  0.05500  0.80630  Biso   1.000  C
  H331     1.0000 0.25570  0.04590  0.81630  Biso   1.000  H
  C492     1.0000 0.22100  0.08230  0.82160  Biso   1.000  C
  H332     1.0000 0.23010  0.09100  0.84230  Biso   1.000  H
  C493     1.0000 0.30630  0.94500  0.73550  Biso   1.000  C
  H333     1.0000 0.31630  0.95410  0.75570  Biso   1.000  H
  C494     1.0000 0.32160  0.91770  0.72100  Biso   1.000  C
  H334     1.0000 0.34230  0.90900  0.73010  Biso   1.000  H
  C495     1.0000 0.19370  0.94500  0.76450  Biso   1.000  C
  H335     1.0000 0.18370  0.95410  0.74430  Biso   1.000  H
  C496     1.0000 0.17840  0.91770  0.77900  Biso   1.000  C
  H336     1.0000 0.15770  0.90900  0.76990  Biso   1.000  H
  Fe21     1.0000 0.25000  0.00000  0.75000  Biso   1.000  Fe
  N121     1.0000 0.22300  0.96080  0.77700  Biso   1.000  N
  C497     1.0000 0.19300  0.90270  0.80700  Biso   1.000  C
  N122     1.0000 0.27700  0.96080  0.72300  Biso   1.000  N
  C498     1.0000 0.30700  0.90270  0.69300  Biso   1.000  C
  N123     1.0000 0.22300  0.03920  0.77700  Biso   1.000  N
  C499     1.0000 0.19300  0.09730  0.80700  Biso   1.000  C
  N124     1.0000 0.27700  0.03920  0.72300  Biso   1.000  N
  C500     1.0000 0.30700  0.09730  0.69300  Biso   1.000  C
  N125     1.0000 0.21080  0.00000  0.71080  Biso   1.000  N
  N126     1.0000 0.28920  0.00000  0.78920  Biso   1.000  N
  C501     1.0000 0.18230  0.00000  0.69350  Biso   1.000  C
  S81      1.0000 0.15100  0.00000  0.67810  Biso   1.000  S
  C502     1.0000 0.31770  0.00000  0.80650  Biso   1.000  C
  S82      1.0000 0.34900  0.00000  0.82190  Biso   1.000  S
  C503     1.0000 0.30650  0.00000  0.81770  Biso   1.000  C
  S83      1.0000 0.32190  0.00000  0.84900  Biso   1.000  S
  C504     1.0000 0.19350  0.00000  0.68230  Biso   1.000  C
  S84      1.0000 0.17810  0.00000  0.65100  Biso   1.000  S
  C505     1.0000 0.23550  0.44500  0.30630  Biso   1.000  C
  H337     1.0000 0.25570  0.45410  0.31630  Biso   1.000  H
  C506     1.0000 0.22100  0.41770  0.32160  Biso   1.000  C
  H338     1.0000 0.23010  0.40900  0.34230  Biso   1.000  H
  C507     1.0000 0.26450  0.44500  0.19370  Biso   1.000  C
  H339     1.0000 0.24430  0.45410  0.18370  Biso   1.000  H
  C508     1.0000 0.27900  0.41770  0.17840  Biso   1.000  C
  H340     1.0000 0.26990  0.40900  0.15770  Biso   1.000  H
  C509     1.0000 0.19370  0.55500  0.26450  Biso   1.000  C
  H341     1.0000 0.18370  0.54590  0.24430  Biso   1.000  H
  C510     1.0000 0.17840  0.58230  0.27900  Biso   1.000  C
  H342     1.0000 0.15770  0.59100  0.26990  Biso   1.000  H
  C511     1.0000 0.30630  0.55500  0.23550  Biso   1.000  C
  H343     1.0000 0.31630  0.54590  0.25570  Biso   1.000  H
  C512     1.0000 0.32160  0.58230  0.22100  Biso   1.000  C
  H344     1.0000 0.34230  0.59100  0.23010  Biso   1.000  H
  C513     1.0000 0.26450  0.55500  0.19370  Biso   1.000  C
  H345     1.0000 0.24430  0.54590  0.18370  Biso   1.000  H
  C514     1.0000 0.27900  0.58230  0.17840  Biso   1.000  C
  H346     1.0000 0.26990  0.59100  0.15770  Biso   1.000  H
  C515     1.0000 0.23550  0.55500  0.30630  Biso   1.000  C
  H347     1.0000 0.25570  0.54590  0.31630  Biso   1.000  H
  C516     1.0000 0.22100  0.58230  0.32160  Biso   1.000  C
  H348     1.0000 0.23010  0.59100  0.34230  Biso   1.000  H
  C517     1.0000 0.30630  0.44500  0.23550  Biso   1.000  C
  H349     1.0000 0.31630  0.45410  0.25570  Biso   1.000  H
  C518     1.0000 0.32160  0.41770  0.22100  Biso   1.000  C
  H350     1.0000 0.34230  0.40900  0.23010  Biso   1.000  H
  C519     1.0000 0.19370  0.44500  0.26450  Biso   1.000  C
  H351     1.0000 0.18370  0.45410  0.24430  Biso   1.000  H
  C520     1.0000 0.17840  0.41770  0.27900  Biso   1.000  C
  H352     1.0000 0.15770  0.40900  0.26990  Biso   1.000  H
  Fe22     1.0000 0.25000  0.50000  0.25000  Biso   1.000  Fe
  N127     1.0000 0.22300  0.46080  0.27700  Biso   1.000  N
  C521     1.0000 0.19300  0.40270  0.30700  Biso   1.000  C
  N128     1.0000 0.27700  0.46080  0.22300  Biso   1.000  N
  C522     1.0000 0.30700  0.40270  0.19300  Biso   1.000  C
  N129     1.0000 0.22300  0.53920  0.27700  Biso   1.000  N
  C523     1.0000 0.19300  0.59730  0.30700  Biso   1.000  C
  N130     1.0000 0.27700  0.53920  0.22300  Biso   1.000  N
  C524     1.0000 0.30700  0.59730  0.19300  Biso   1.000  C
  N131     1.0000 0.21080  0.50000  0.21080  Biso   1.000  N
  N132     1.0000 0.28920  0.50000  0.28920  Biso   1.000  N
  C525     1.0000 0.18230  0.50000  0.19350  Biso   1.000  C
  S85      1.0000 0.15100  0.50000  0.17810  Biso   1.000  S
  C526     1.0000 0.31770  0.50000  0.30650  Biso   1.000  C
  S86      1.0000 0.34900  0.50000  0.32190  Biso   1.000  S
  C527     1.0000 0.30650  0.50000  0.31770  Biso   1.000  C
  S87      1.0000 0.32190  0.50000  0.34900  Biso   1.000  S
  C528     1.0000 0.19350  0.50000  0.18230  Biso   1.000  C
  S88      1.0000 0.17810  0.50000  0.15100  Biso   1.000  S
  C529     1.0000 0.73550  0.94500  0.30630  Biso   1.000  C
  H353     1.0000 0.75570  0.95410  0.31630  Biso   1.000  H
  C530     1.0000 0.72100  0.91770  0.32160  Biso   1.000  C
  H354     1.0000 0.73010  0.90900  0.34230  Biso   1.000  H
  C531     1.0000 0.76450  0.94500  0.19370  Biso   1.000  C
  H355     1.0000 0.74430  0.95410  0.18370  Biso   1.000  H
  C532     1.0000 0.77900  0.91770  0.17840  Biso   1.000  C
  H356     1.0000 0.76990  0.90900  0.15770  Biso   1.000  H
  C533     1.0000 0.69370  0.05500  0.26450  Biso   1.000  C
  H357     1.0000 0.68370  0.04590  0.24430  Biso   1.000  H
  C534     1.0000 0.67840  0.08230  0.27900  Biso   1.000  C
  H358     1.0000 0.65770  0.09100  0.26990  Biso   1.000  H
  C535     1.0000 0.80630  0.05500  0.23550  Biso   1.000  C
  H359     1.0000 0.81630  0.04590  0.25570  Biso   1.000  H
  C536     1.0000 0.82160  0.08230  0.22100  Biso   1.000  C
  H360     1.0000 0.84230  0.09100  0.23010  Biso   1.000  H
  C537     1.0000 0.76450  0.05500  0.19370  Biso   1.000  C
  H361     1.0000 0.74430  0.04590  0.18370  Biso   1.000  H
  C538     1.0000 0.77900  0.08230  0.17840  Biso   1.000  C
  H362     1.0000 0.76990  0.09100  0.15770  Biso   1.000  H
  C539     1.0000 0.73550  0.05500  0.30630  Biso   1.000  C
  H363     1.0000 0.75570  0.04590  0.31630  Biso   1.000  H
  C540     1.0000 0.72100  0.08230  0.32160  Biso   1.000  C
  H364     1.0000 0.73010  0.09100  0.34230  Biso   1.000  H
  C541     1.0000 0.80630  0.94500  0.23550  Biso   1.000  C
  H365     1.0000 0.81630  0.95410  0.25570  Biso   1.000  H
  C542     1.0000 0.82160  0.91770  0.22100  Biso   1.000  C
  H366     1.0000 0.84230  0.90900  0.23010  Biso   1.000  H
  C543     1.0000 0.69370  0.94500  0.26450  Biso   1.000  C
  H367     1.0000 0.68370  0.95410  0.24430  Biso   1.000  H
  C544     1.0000 0.67840  0.91770  0.27900  Biso   1.000  C
  H368     1.0000 0.65770  0.90900  0.26990  Biso   1.000  H
  Fe23     1.0000 0.75000  0.00000  0.25000  Biso   1.000  Fe
  N133     1.0000 0.72300  0.96080  0.27700  Biso   1.000  N
  C545     1.0000 0.69300  0.90270  0.30700  Biso   1.000  C
  N134     1.0000 0.77700  0.96080  0.22300  Biso   1.000  N
  C546     1.0000 0.80700  0.90270  0.19300  Biso   1.000  C
  N135     1.0000 0.72300  0.03920  0.27700  Biso   1.000  N
  C547     1.0000 0.69300  0.09730  0.30700  Biso   1.000  C
  N136     1.0000 0.77700  0.03920  0.22300  Biso   1.000  N
  C548     1.0000 0.80700  0.09730  0.19300  Biso   1.000  C
  N137     1.0000 0.78920  0.00000  0.28920  Biso   1.000  N
  N138     1.0000 0.71080  0.00000  0.21080  Biso   1.000  N
  C549     1.0000 0.68230  0.00000  0.19350  Biso   1.000  C
  S89      1.0000 0.65100  0.00000  0.17810  Biso   1.000  S
  C550     1.0000 0.81770  0.00000  0.30650  Biso   1.000  C
  S90      1.0000 0.84900  0.00000  0.32190  Biso   1.000  S
  C551     1.0000 0.80650  0.00000  0.31770  Biso   1.000  C
  S91      1.0000 0.82190  0.00000  0.34900  Biso   1.000  S
  C552     1.0000 0.69350  0.00000  0.18230  Biso   1.000  C
  S92      1.0000 0.67810  0.00000  0.15100  Biso   1.000  S
  C553     1.0000 0.73550  0.44500  0.80630  Biso   1.000  C
  H369     1.0000 0.75570  0.45410  0.81630  Biso   1.000  H
  C554     1.0000 0.72100  0.41770  0.82160  Biso   1.000  C
  H370     1.0000 0.73010  0.40900  0.84230  Biso   1.000  H
  C555     1.0000 0.76450  0.44500  0.69370  Biso   1.000  C
  H371     1.0000 0.74430  0.45410  0.68370  Biso   1.000  H
  C556     1.0000 0.77900  0.41770  0.67840  Biso   1.000  C
  H372     1.0000 0.76990  0.40900  0.65770  Biso   1.000  H
  C557     1.0000 0.69370  0.55500  0.76450  Biso   1.000  C
  H373     1.0000 0.68370  0.54590  0.74430  Biso   1.000  H
  C558     1.0000 0.67840  0.58230  0.77900  Biso   1.000  C
  H374     1.0000 0.65770  0.59100  0.76990  Biso   1.000  H
  C559     1.0000 0.80630  0.55500  0.73550  Biso   1.000  C
  H375     1.0000 0.81630  0.54590  0.75570  Biso   1.000  H
  C560     1.0000 0.82160  0.58230  0.72100  Biso   1.000  C
  H376     1.0000 0.84230  0.59100  0.73010  Biso   1.000  H
  C561     1.0000 0.76450  0.55500  0.69370  Biso   1.000  C
  H377     1.0000 0.74430  0.54590  0.68370  Biso   1.000  H
  C562     1.0000 0.77900  0.58230  0.67840  Biso   1.000  C
  H378     1.0000 0.76990  0.59100  0.65770  Biso   1.000  H
  C563     1.0000 0.73550  0.55500  0.80630  Biso   1.000  C
  H379     1.0000 0.75570  0.54590  0.81630  Biso   1.000  H
  C564     1.0000 0.72100  0.58230  0.82160  Biso   1.000  C
  H380     1.0000 0.73010  0.59100  0.84230  Biso   1.000  H
  C565     1.0000 0.80630  0.44500  0.73550  Biso   1.000  C
  H381     1.0000 0.81630  0.45410  0.75570  Biso   1.000  H
  C566     1.0000 0.82160  0.41770  0.72100  Biso   1.000  C
  H382     1.0000 0.84230  0.40900  0.73010  Biso   1.000  H
  C567     1.0000 0.69370  0.44500  0.76450  Biso   1.000  C
  H383     1.0000 0.68370  0.45410  0.74430  Biso   1.000  H
  C568     1.0000 0.67840  0.41770  0.77900  Biso   1.000  C
  H384     1.0000 0.65770  0.40900  0.76990  Biso   1.000  H
  Fe24     1.0000 0.75000  0.50000  0.75000  Biso   1.000  Fe
  N139     1.0000 0.72300  0.46080  0.77700  Biso   1.000  N
  C569     1.0000 0.69300  0.40270  0.80700  Biso   1.000  C
  N140     1.0000 0.77700  0.46080  0.72300  Biso   1.000  N
  C570     1.0000 0.80700  0.40270  0.69300  Biso   1.000  C
  N141     1.0000 0.72300  0.53920  0.77700  Biso   1.000  N
  C571     1.0000 0.69300  0.59730  0.80700  Biso   1.000  C
  N142     1.0000 0.77700  0.53920  0.72300  Biso   1.000  N
  C572     1.0000 0.80700  0.59730  0.69300  Biso   1.000  C
  N143     1.0000 0.78920  0.50000  0.78920  Biso   1.000  N
  N144     1.0000 0.71080  0.50000  0.71080  Biso   1.000  N
  C573     1.0000 0.68230  0.50000  0.69350  Biso   1.000  C
  S93      1.0000 0.65100  0.50000  0.67810  Biso   1.000  S
  C574     1.0000 0.81770  0.50000  0.80650  Biso   1.000  C
  S94      1.0000 0.84900  0.50000  0.82190  Biso   1.000  S
  C575     1.0000 0.80650  0.50000  0.81770  Biso   1.000  C
  S95      1.0000 0.82190  0.50000  0.84900  Biso   1.000  S
  C576     1.0000 0.69350  0.50000  0.68230  Biso   1.000  C
  S96      1.0000 0.67810  0.50000  0.65100  Biso   1.000  S
