data_image0
_cell_length_a       38.6103
_cell_length_b       38.6103
_cell_length_c       59.421
_cell_angle_alpha    90
_cell_angle_beta     90
_cell_angle_gamma    120

_symmetry_space_group_name_H-M    "P 1"
_symmetry_int_tables_number       1

loop_
  _symmetry_equiv_pos_as_xyz
  'x, y, z'

loop_
  _atom_site_label
  _atom_site_occupancy
  _atom_site_fract_x
  _atom_site_fract_y
  _atom_site_fract_z
  _atom_site_thermal_displace_type
  _atom_site_B_iso_or_equiv
  _atom_site_type_symbol
  C1       1.0000 0.30622  0.20838  0.37016  Biso   1.000  C
  C2       1.0000 0.29531  0.23846  0.37372  Biso   1.000  C
  C3       1.0000 0.31831  0.27023  0.38809  Biso   1.000  C
  H1       1.0000 0.33800  0.26980  0.39690  Biso   1.000  H
  C4       1.0000 0.31193  0.30253  0.38925  Biso   1.000  C
  H2       1.0000 0.32730  0.32380  0.39890  Biso   1.000  H
  C5       1.0000 0.28247  0.30306  0.37595  Biso   1.000  C
  H3       1.0000 0.27820  0.32470  0.37670  Biso   1.000  H
  C6       1.0000 0.25961  0.27141  0.36162  Biso   1.000  C
  C7       1.0000 0.26586  0.23907  0.36046  Biso   1.000  C
  H4       1.0000 0.25040  0.21780  0.35090  Biso   1.000  H
  C8       1.0000 0.20652  0.24441  0.33517  Biso   1.000  C
  H5       1.0000 0.18970  0.21960  0.34320  Biso   1.000  H
  H6       1.0000 0.22180  0.23960  0.32390  Biso   1.000  H
  C9       1.0000 0.18089  0.26008  0.32404  Biso   1.000  C
  C10      1.0000 0.15136  0.26144  0.33644  Biso   1.000  C
  C11      1.0000 0.13264  0.27995  0.32696  Biso   1.000  C
  C12      1.0000 0.13883  0.29262  0.30508  Biso   1.000  C
  C13      1.0000 0.16719  0.28913  0.29271  Biso   1.000  C
  C14      1.0000 0.19066  0.27411  0.30265  Biso   1.000  C
  C15      1.0000 0.22443  0.27490  0.28981  Biso   1.000  C
  H7       1.0000 0.24630  0.28120  0.29990  Biso   1.000  H
  H8       1.0000 0.23310  0.29480  0.27820  Biso   1.000  H
  H9       1.0000 0.21560  0.24920  0.28310  Biso   1.000  H
  C16      1.0000 0.13972  0.24372  0.35977  Biso   1.000  C
  H10      1.0000 0.13610  0.21730  0.35980  Biso   1.000  H
  H11      1.0000 0.11520  0.24250  0.36410  Biso   1.000  H
  H12      1.0000 0.16040  0.26020  0.37020  Biso   1.000  H
  C17      1.0000 0.11628  0.31064  0.29485  Biso   1.000  C
  H13      1.0000 0.09210  0.30240  0.30320  Biso   1.000  H
  H14      1.0000 0.10980  0.30190  0.27950  Biso   1.000  H
  H15      1.0000 0.13240  0.33930  0.29520  Biso   1.000  H
  C18      1.0000 0.10413  0.28742  0.34062  Biso   1.000  C
  H16      1.0000 0.11070  0.28900  0.35650  Biso   1.000  H
  H17      1.0000 0.10610  0.31250  0.33610  Biso   1.000  H
  C19      1.0000 0.03409  0.25821  0.34729  Biso   1.000  C
  C20      1.0000 0.04141  0.29042  0.36084  Biso   1.000  C
  H18      1.0000 0.06760  0.31050  0.36370  Biso   1.000  H
  C21      1.0000 0.01041  0.29259  0.36998  Biso   1.000  C
  H19      1.0000 0.01530  0.31500  0.37830  Biso   1.000  H
  C22      1.0000 0.97156  0.26186  0.36702  Biso   1.000  C
  H20      1.0000 0.95040  0.26260  0.37400  Biso   1.000  H
  C23      1.0000 0.96467  0.22914  0.35320  Biso   1.000  C
  C24      1.0000 0.99633  0.22801  0.34367  Biso   1.000  C
  H21      1.0000 0.99190  0.20640  0.33470  Biso   1.000  H
  C25      1.0000 0.92276  0.19637  0.34936  Biso   1.000  C
  C26      1.0000 0.17588  0.30365  0.26888  Biso   1.000  C
  H22      1.0000 0.18710  0.28970  0.26090  Biso   1.000  H
  H23      1.0000 0.15120  0.29790  0.26140  Biso   1.000  H
  C27      1.0000 0.20989  0.36408  0.24864  Biso   1.000  C
  C28      1.0000 0.23653  0.40594  0.24938  Biso   1.000  C
  H24      1.0000 0.24830  0.41820  0.26300  Biso   1.000  H
  C29      1.0000 0.24487  0.42808  0.23056  Biso   1.000  C
  H25      1.0000 0.26180  0.45560  0.23130  Biso   1.000  H
  C30      1.0000 0.22821  0.40989  0.20989  Biso   1.000  C
  H26      1.0000 0.23540  0.42500  0.19680  Biso   1.000  H
  C31      1.0000 0.20092  0.36913  0.20910  Biso   1.000  C
  C32      1.0000 0.19331  0.34743  0.22854  Biso   1.000  C
  H27      1.0000 0.17590  0.32000  0.22790  Biso   1.000  H
  C33      1.0000 0.18272  0.34906  0.18770  Biso   1.000  C
  O1       1.0000 0.33612  0.21079  0.38050  Biso   1.000  O
  O2       1.0000 0.28968  0.18153  0.35628  Biso   1.000  O
  O3       1.0000 0.23258  0.27494  0.35044  Biso   1.000  O
  O4       1.0000 0.20271  0.34471  0.26823  Biso   1.000  O
  O5       1.0000 0.15864  0.31225  0.18867  Biso   1.000  O
  O6       1.0000 0.19214  0.36932  0.17029  Biso   1.000  O
  O7       1.0000 0.06383  0.25464  0.33674  Biso   1.000  O
  O8       1.0000 0.91613  0.16487  0.34106  Biso   1.000  O
  O9       1.0000 0.89596  0.20321  0.35672  Biso   1.000  O
  Co1      1.0000 0.83542  0.17751  0.36099  Biso   1.000  Co
  Co2      1.0000 0.86009  0.11490  0.32860  Biso   1.000  Co
  Co3      1.0000 0.16458  0.34209  0.13901  Biso   1.000  Co
  Co4      1.0000 0.13991  0.25482  0.17140  Biso   1.000  Co
  C34      1.0000 0.69378  0.90216  0.12984  Biso   1.000  C
  C35      1.0000 0.70469  0.94315  0.12628  Biso   1.000  C
  C36      1.0000 0.68169  0.95192  0.11191  Biso   1.000  C
  H28      1.0000 0.66200  0.93180  0.10310  Biso   1.000  H
  C37      1.0000 0.68807  0.99060  0.11075  Biso   1.000  C
  H29      1.0000 0.67270  0.99650  0.10110  Biso   1.000  H
  C38      1.0000 0.71753  0.02059  0.12405  Biso   1.000  C
  H30      1.0000 0.72180  0.04650  0.12330  Biso   1.000  H
  C39      1.0000 0.74039  0.01180  0.13838  Biso   1.000  C
  C40      1.0000 0.73414  0.97321  0.13954  Biso   1.000  C
  H31      1.0000 0.74960  0.96740  0.14910  Biso   1.000  H
  C41      1.0000 0.79348  0.03789  0.16483  Biso   1.000  C
  H32      1.0000 0.81030  0.02990  0.15680  Biso   1.000  H
  H33      1.0000 0.77820  0.01780  0.17610  Biso   1.000  H
  C42      1.0000 0.81911  0.07919  0.17596  Biso   1.000  C
  C43      1.0000 0.84864  0.11008  0.16356  Biso   1.000  C
  C44      1.0000 0.86736  0.14731  0.17304  Biso   1.000  C
  C45      1.0000 0.86117  0.15379  0.19492  Biso   1.000  C
  C46      1.0000 0.83281  0.12194  0.20729  Biso   1.000  C
  C47      1.0000 0.80934  0.08345  0.19735  Biso   1.000  C
  C48      1.0000 0.77557  0.05047  0.21019  Biso   1.000  C
  H34      1.0000 0.75370  0.03490  0.20010  Biso   1.000  H
  H35      1.0000 0.76690  0.06170  0.22180  Biso   1.000  H
  H36      1.0000 0.78440  0.03360  0.21690  Biso   1.000  H
  C49      1.0000 0.86028  0.10400  0.14023  Biso   1.000  C
  H37      1.0000 0.86390  0.08120  0.14020  Biso   1.000  H
  H38      1.0000 0.88480  0.12730  0.13590  Biso   1.000  H
  H39      1.0000 0.83960  0.09980  0.12980  Biso   1.000  H
  C50      1.0000 0.88372  0.19436  0.20515  Biso   1.000  C
  H40      1.0000 0.90790  0.21030  0.19680  Biso   1.000  H
  H41      1.0000 0.89020  0.19210  0.22050  Biso   1.000  H
  H42      1.0000 0.86760  0.20690  0.20480  Biso   1.000  H
  C51      1.0000 0.89587  0.18329  0.15938  Biso   1.000  C
  H43      1.0000 0.88930  0.17830  0.14350  Biso   1.000  H
  H44      1.0000 0.89390  0.20640  0.16390  Biso   1.000  H
  C52      1.0000 0.96591  0.22412  0.15271  Biso   1.000  C
  C53      1.0000 0.95859  0.24901  0.13916  Biso   1.000  C
  H45      1.0000 0.93240  0.24290  0.13630  Biso   1.000  H
  C54      1.0000 0.98959  0.28218  0.13002  Biso   1.000  C
  H46      1.0000 0.98470  0.29970  0.12170  Biso   1.000  H
  C55      1.0000 0.02844  0.29030  0.13298  Biso   1.000  C
  H47      1.0000 0.04960  0.31220  0.12600  Biso   1.000  H
  C56      1.0000 0.03533  0.26447  0.14680  Biso   1.000  C
  C57      1.0000 0.00367  0.23168  0.15633  Biso   1.000  C
  H48      1.0000 0.00810  0.21450  0.16530  Biso   1.000  H
  C58      1.0000 0.07724  0.27361  0.15064  Biso   1.000  C
  C59      1.0000 0.82412  0.12777  0.23112  Biso   1.000  C
  H49      1.0000 0.81290  0.10260  0.23910  Biso   1.000  H
  H50      1.0000 0.84880  0.14670  0.23860  Biso   1.000  H
  C60      1.0000 0.79011  0.15419  0.25136  Biso   1.000  C
  C61      1.0000 0.76347  0.16941  0.25062  Biso   1.000  C
  H51      1.0000 0.75170  0.16990  0.23700  Biso   1.000  H
  C62      1.0000 0.75513  0.18321  0.26944  Biso   1.000  C
  H52      1.0000 0.73820  0.19380  0.26870  Biso   1.000  H
  C63      1.0000 0.77179  0.18168  0.29011  Biso   1.000  C
  H53      1.0000 0.76460  0.18960  0.30320  Biso   1.000  H
  C64      1.0000 0.79908  0.16821  0.29090  Biso   1.000  C
  C65      1.0000 0.80669  0.15412  0.27146  Biso   1.000  C
  H54      1.0000 0.82410  0.14410  0.27210  Biso   1.000  H
  C66      1.0000 0.81728  0.16634  0.31230  Biso   1.000  C
  O10      1.0000 0.66388  0.87467  0.11950  Biso   1.000  O
  O11      1.0000 0.71032  0.89185  0.14372  Biso   1.000  O
  O12      1.0000 0.76742  0.04236  0.14956  Biso   1.000  O
  O13      1.0000 0.79729  0.14200  0.23177  Biso   1.000  O
  O14      1.0000 0.84136  0.15361  0.31133  Biso   1.000  O
  O15      1.0000 0.80786  0.17718  0.32971  Biso   1.000  O
  O16      1.0000 0.93617  0.19081  0.16326  Biso   1.000  O
  O17      1.0000 0.08387  0.24874  0.15894  Biso   1.000  O
  O18      1.0000 0.10404  0.30725  0.14328  Biso   1.000  O
  Co5      1.0000 0.34209  0.16458  0.36099  Biso   1.000  Co
  Co6      1.0000 0.25482  0.13991  0.32860  Biso   1.000  Co
  C67      1.0000 0.90216  0.69378  0.37016  Biso   1.000  C
  C68      1.0000 0.94315  0.70469  0.37372  Biso   1.000  C
  C69      1.0000 0.95192  0.68169  0.38809  Biso   1.000  C
  H55      1.0000 0.93180  0.66200  0.39690  Biso   1.000  H
  C70      1.0000 0.99060  0.68807  0.38925  Biso   1.000  C
  H56      1.0000 0.99650  0.67270  0.39890  Biso   1.000  H
  C71      1.0000 0.02059  0.71753  0.37595  Biso   1.000  C
  H57      1.0000 0.04650  0.72180  0.37670  Biso   1.000  H
  C72      1.0000 0.01180  0.74039  0.36162  Biso   1.000  C
  C73      1.0000 0.97321  0.73414  0.36046  Biso   1.000  C
  H58      1.0000 0.96740  0.74960  0.35090  Biso   1.000  H
  C74      1.0000 0.03789  0.79348  0.33517  Biso   1.000  C
  H59      1.0000 0.02990  0.81030  0.34320  Biso   1.000  H
  H60      1.0000 0.01780  0.77820  0.32390  Biso   1.000  H
  C75      1.0000 0.07919  0.81911  0.32404  Biso   1.000  C
  C76      1.0000 0.11008  0.84864  0.33644  Biso   1.000  C
  C77      1.0000 0.14731  0.86736  0.32696  Biso   1.000  C
  C78      1.0000 0.15379  0.86117  0.30508  Biso   1.000  C
  C79      1.0000 0.12194  0.83281  0.29271  Biso   1.000  C
  C80      1.0000 0.08345  0.80934  0.30265  Biso   1.000  C
  C81      1.0000 0.05047  0.77557  0.28981  Biso   1.000  C
  H61      1.0000 0.03490  0.75370  0.29990  Biso   1.000  H
  H62      1.0000 0.06170  0.76690  0.27820  Biso   1.000  H
  H63      1.0000 0.03360  0.78440  0.28310  Biso   1.000  H
  C82      1.0000 0.10400  0.86028  0.35977  Biso   1.000  C
  H64      1.0000 0.08120  0.86390  0.35980  Biso   1.000  H
  H65      1.0000 0.12730  0.88480  0.36410  Biso   1.000  H
  H66      1.0000 0.09980  0.83960  0.37020  Biso   1.000  H
  C83      1.0000 0.19436  0.88372  0.29485  Biso   1.000  C
  H67      1.0000 0.21030  0.90790  0.30320  Biso   1.000  H
  H68      1.0000 0.19210  0.89020  0.27950  Biso   1.000  H
  H69      1.0000 0.20690  0.86760  0.29520  Biso   1.000  H
  C84      1.0000 0.18329  0.89587  0.34062  Biso   1.000  C
  H70      1.0000 0.17830  0.88930  0.35650  Biso   1.000  H
  H71      1.0000 0.20640  0.89390  0.33610  Biso   1.000  H
  C85      1.0000 0.22412  0.96591  0.34729  Biso   1.000  C
  C86      1.0000 0.24901  0.95859  0.36084  Biso   1.000  C
  H72      1.0000 0.24290  0.93240  0.36370  Biso   1.000  H
  C87      1.0000 0.28218  0.98959  0.36998  Biso   1.000  C
  H73      1.0000 0.29970  0.98470  0.37830  Biso   1.000  H
  C88      1.0000 0.29030  0.02844  0.36702  Biso   1.000  C
  H74      1.0000 0.31220  0.04960  0.37400  Biso   1.000  H
  C89      1.0000 0.26447  0.03533  0.35320  Biso   1.000  C
  C90      1.0000 0.23168  0.00367  0.34367  Biso   1.000  C
  H75      1.0000 0.21450  0.00810  0.33470  Biso   1.000  H
  C91      1.0000 0.27361  0.07724  0.34936  Biso   1.000  C
  C92      1.0000 0.12777  0.82412  0.26888  Biso   1.000  C
  H76      1.0000 0.10260  0.81290  0.26090  Biso   1.000  H
  H77      1.0000 0.14670  0.84880  0.26140  Biso   1.000  H
  C93      1.0000 0.15419  0.79011  0.24864  Biso   1.000  C
  C94      1.0000 0.16941  0.76347  0.24938  Biso   1.000  C
  H78      1.0000 0.16990  0.75170  0.26300  Biso   1.000  H
  C95      1.0000 0.18321  0.75513  0.23056  Biso   1.000  C
  H79      1.0000 0.19380  0.73820  0.23130  Biso   1.000  H
  C96      1.0000 0.18168  0.77179  0.20989  Biso   1.000  C
  H80      1.0000 0.18960  0.76460  0.19680  Biso   1.000  H
  C97      1.0000 0.16821  0.79908  0.20910  Biso   1.000  C
  C98      1.0000 0.15412  0.80669  0.22854  Biso   1.000  C
  H81      1.0000 0.14410  0.82410  0.22790  Biso   1.000  H
  C99      1.0000 0.16634  0.81728  0.18770  Biso   1.000  C
  O19      1.0000 0.87467  0.66388  0.38050  Biso   1.000  O
  O20      1.0000 0.89185  0.71032  0.35628  Biso   1.000  O
  O21      1.0000 0.04236  0.76742  0.35044  Biso   1.000  O
  O22      1.0000 0.14200  0.79729  0.26823  Biso   1.000  O
  O23      1.0000 0.15361  0.84136  0.18867  Biso   1.000  O
  O24      1.0000 0.17718  0.80786  0.17029  Biso   1.000  O
  O25      1.0000 0.19081  0.93617  0.33674  Biso   1.000  O
  O26      1.0000 0.24874  0.08387  0.34106  Biso   1.000  O
  O27      1.0000 0.30725  0.10404  0.35672  Biso   1.000  O
  C100     1.0000 0.20838  0.30622  0.12984  Biso   1.000  C
  C101     1.0000 0.23846  0.29531  0.12628  Biso   1.000  C
  C102     1.0000 0.27023  0.31831  0.11191  Biso   1.000  C
  H82      1.0000 0.26980  0.33800  0.10310  Biso   1.000  H
  C103     1.0000 0.30253  0.31193  0.11075  Biso   1.000  C
  H83      1.0000 0.32380  0.32730  0.10110  Biso   1.000  H
  C104     1.0000 0.30306  0.28247  0.12405  Biso   1.000  C
  H84      1.0000 0.32470  0.27820  0.12330  Biso   1.000  H
  C105     1.0000 0.27141  0.25961  0.13838  Biso   1.000  C
  C106     1.0000 0.23907  0.26586  0.13954  Biso   1.000  C
  H85      1.0000 0.21780  0.25040  0.14910  Biso   1.000  H
  C107     1.0000 0.24441  0.20652  0.16483  Biso   1.000  C
  H86      1.0000 0.21960  0.18970  0.15680  Biso   1.000  H
  H87      1.0000 0.23960  0.22180  0.17610  Biso   1.000  H
  C108     1.0000 0.26008  0.18089  0.17596  Biso   1.000  C
  C109     1.0000 0.26144  0.15136  0.16356  Biso   1.000  C
  C110     1.0000 0.27995  0.13264  0.17304  Biso   1.000  C
  C111     1.0000 0.29262  0.13883  0.19492  Biso   1.000  C
  C112     1.0000 0.28913  0.16719  0.20729  Biso   1.000  C
  C113     1.0000 0.27411  0.19066  0.19735  Biso   1.000  C
  C114     1.0000 0.27490  0.22443  0.21019  Biso   1.000  C
  H88      1.0000 0.28120  0.24630  0.20010  Biso   1.000  H
  H89      1.0000 0.29480  0.23310  0.22180  Biso   1.000  H
  H90      1.0000 0.24920  0.21560  0.21690  Biso   1.000  H
  C115     1.0000 0.24372  0.13972  0.14023  Biso   1.000  C
  H91      1.0000 0.21730  0.13610  0.14020  Biso   1.000  H
  H92      1.0000 0.24250  0.11520  0.13590  Biso   1.000  H
  H93      1.0000 0.26020  0.16040  0.12980  Biso   1.000  H
  C116     1.0000 0.31064  0.11628  0.20515  Biso   1.000  C
  H94      1.0000 0.30240  0.09210  0.19680  Biso   1.000  H
  H95      1.0000 0.30190  0.10980  0.22050  Biso   1.000  H
  H96      1.0000 0.33930  0.13240  0.20480  Biso   1.000  H
  C117     1.0000 0.28742  0.10413  0.15938  Biso   1.000  C
  H97      1.0000 0.28900  0.11070  0.14350  Biso   1.000  H
  H98      1.0000 0.31250  0.10610  0.16390  Biso   1.000  H
  C118     1.0000 0.25821  0.03409  0.15271  Biso   1.000  C
  C119     1.0000 0.29042  0.04141  0.13916  Biso   1.000  C
  H99      1.0000 0.31050  0.06760  0.13630  Biso   1.000  H
  C120     1.0000 0.29259  0.01041  0.13002  Biso   1.000  C
  H100     1.0000 0.31500  0.01530  0.12170  Biso   1.000  H
  C121     1.0000 0.26186  0.97156  0.13298  Biso   1.000  C
  H101     1.0000 0.26260  0.95040  0.12600  Biso   1.000  H
  C122     1.0000 0.22914  0.96467  0.14680  Biso   1.000  C
  C123     1.0000 0.22801  0.99633  0.15633  Biso   1.000  C
  H102     1.0000 0.20640  0.99190  0.16530  Biso   1.000  H
  C124     1.0000 0.19637  0.92276  0.15064  Biso   1.000  C
  C125     1.0000 0.30365  0.17588  0.23112  Biso   1.000  C
  H103     1.0000 0.28970  0.18710  0.23910  Biso   1.000  H
  H104     1.0000 0.29790  0.15120  0.23860  Biso   1.000  H
  C126     1.0000 0.36408  0.20989  0.25136  Biso   1.000  C
  C127     1.0000 0.40594  0.23653  0.25062  Biso   1.000  C
  H105     1.0000 0.41820  0.24830  0.23700  Biso   1.000  H
  C128     1.0000 0.42808  0.24487  0.26944  Biso   1.000  C
  H106     1.0000 0.45560  0.26180  0.26870  Biso   1.000  H
  C129     1.0000 0.40989  0.22821  0.29011  Biso   1.000  C
  H107     1.0000 0.42500  0.23540  0.30320  Biso   1.000  H
  C130     1.0000 0.36913  0.20092  0.29090  Biso   1.000  C
  C131     1.0000 0.34743  0.19331  0.27146  Biso   1.000  C
  H108     1.0000 0.32000  0.17590  0.27210  Biso   1.000  H
  C132     1.0000 0.34906  0.18272  0.31230  Biso   1.000  C
  O28      1.0000 0.21079  0.33612  0.11950  Biso   1.000  O
  O29      1.0000 0.18153  0.28968  0.14372  Biso   1.000  O
  O30      1.0000 0.27494  0.23258  0.14956  Biso   1.000  O
  O31      1.0000 0.34471  0.20271  0.23177  Biso   1.000  O
  O32      1.0000 0.31225  0.15864  0.31133  Biso   1.000  O
  O33      1.0000 0.36932  0.19214  0.32971  Biso   1.000  O
  O34      1.0000 0.25464  0.06383  0.16326  Biso   1.000  O
  O35      1.0000 0.16487  0.91613  0.15894  Biso   1.000  O
  O36      1.0000 0.20321  0.89596  0.14328  Biso   1.000  O
  Co7      1.0000 0.17751  0.83542  0.13901  Biso   1.000  Co
  Co8      1.0000 0.11490  0.86009  0.17140  Biso   1.000  Co
  C133     1.0000 0.97289  0.54171  0.70349  Biso   1.000  C
  C134     1.0000 0.96198  0.57179  0.70705  Biso   1.000  C
  C135     1.0000 0.98498  0.60356  0.72142  Biso   1.000  C
  H109     1.0000 0.00467  0.60313  0.73023  Biso   1.000  H
  C136     1.0000 0.97860  0.63586  0.72258  Biso   1.000  C
  H110     1.0000 0.99397  0.65713  0.73223  Biso   1.000  H
  C137     1.0000 0.94914  0.63639  0.70928  Biso   1.000  C
  H111     1.0000 0.94487  0.65803  0.71003  Biso   1.000  H
  C138     1.0000 0.92628  0.60474  0.69495  Biso   1.000  C
  C139     1.0000 0.93253  0.57240  0.69379  Biso   1.000  C
  H112     1.0000 0.91707  0.55113  0.68423  Biso   1.000  H
  C140     1.0000 0.87319  0.57774  0.66850  Biso   1.000  C
  H113     1.0000 0.85637  0.55293  0.67653  Biso   1.000  H
  H114     1.0000 0.88847  0.57293  0.65723  Biso   1.000  H
  C141     1.0000 0.84756  0.59341  0.65737  Biso   1.000  C
  C142     1.0000 0.81803  0.59477  0.66977  Biso   1.000  C
  C143     1.0000 0.79931  0.61328  0.66029  Biso   1.000  C
  C144     1.0000 0.80550  0.62595  0.63841  Biso   1.000  C
  C145     1.0000 0.83386  0.62246  0.62604  Biso   1.000  C
  C146     1.0000 0.85733  0.60744  0.63598  Biso   1.000  C
  C147     1.0000 0.89110  0.60823  0.62314  Biso   1.000  C
  H115     1.0000 0.91297  0.61453  0.63323  Biso   1.000  H
  H116     1.0000 0.89977  0.62813  0.61153  Biso   1.000  H
  H117     1.0000 0.88227  0.58253  0.61643  Biso   1.000  H
  C148     1.0000 0.80639  0.57705  0.69310  Biso   1.000  C
  H118     1.0000 0.80277  0.55063  0.69313  Biso   1.000  H
  H119     1.0000 0.78187  0.57583  0.69743  Biso   1.000  H
  H120     1.0000 0.82707  0.59353  0.70353  Biso   1.000  H
  C149     1.0000 0.78295  0.64397  0.62818  Biso   1.000  C
  H121     1.0000 0.75877  0.63573  0.63653  Biso   1.000  H
  H122     1.0000 0.77647  0.63523  0.61283  Biso   1.000  H
  H123     1.0000 0.79907  0.67263  0.62853  Biso   1.000  H
  C150     1.0000 0.77080  0.62075  0.67395  Biso   1.000  C
  H124     1.0000 0.77737  0.62233  0.68983  Biso   1.000  H
  H125     1.0000 0.77277  0.64583  0.66943  Biso   1.000  H
  C151     1.0000 0.70076  0.59154  0.68062  Biso   1.000  C
  C152     1.0000 0.70808  0.62375  0.69417  Biso   1.000  C
  H126     1.0000 0.73427  0.64383  0.69703  Biso   1.000  H
  C153     1.0000 0.67708  0.62592  0.70331  Biso   1.000  C
  H127     1.0000 0.68197  0.64833  0.71163  Biso   1.000  H
  C154     1.0000 0.63823  0.59519  0.70035  Biso   1.000  C
  H128     1.0000 0.61707  0.59593  0.70733  Biso   1.000  H
  C155     1.0000 0.63134  0.56247  0.68653  Biso   1.000  C
  C156     1.0000 0.66300  0.56134  0.67700  Biso   1.000  C
  H129     1.0000 0.65857  0.53973  0.66803  Biso   1.000  H
  C157     1.0000 0.58943  0.52970  0.68269  Biso   1.000  C
  C158     1.0000 0.84255  0.63698  0.60221  Biso   1.000  C
  H130     1.0000 0.85377  0.62303  0.59423  Biso   1.000  H
  H131     1.0000 0.81787  0.63123  0.59473  Biso   1.000  H
  C159     1.0000 0.87656  0.69741  0.58197  Biso   1.000  C
  C160     1.0000 0.90320  0.73927  0.58271  Biso   1.000  C
  H132     1.0000 0.91497  0.75153  0.59633  Biso   1.000  H
  C161     1.0000 0.91154  0.76141  0.56389  Biso   1.000  C
  H133     1.0000 0.92847  0.78893  0.56463  Biso   1.000  H
  C162     1.0000 0.89488  0.74322  0.54322  Biso   1.000  C
  H134     1.0000 0.90207  0.75833  0.53013  Biso   1.000  H
  C163     1.0000 0.86759  0.70246  0.54243  Biso   1.000  C
  C164     1.0000 0.85998  0.68076  0.56187  Biso   1.000  C
  H135     1.0000 0.84257  0.65333  0.56123  Biso   1.000  H
  C165     1.0000 0.84939  0.68239  0.52103  Biso   1.000  C
  O37      1.0000 0.00279  0.54412  0.71383  Biso   1.000  O
  O38      1.0000 0.95635  0.51486  0.68961  Biso   1.000  O
  O39      1.0000 0.89925  0.60827  0.68377  Biso   1.000  O
  O40      1.0000 0.86938  0.67804  0.60156  Biso   1.000  O
  O41      1.0000 0.82531  0.64558  0.52200  Biso   1.000  O
  O42      1.0000 0.85881  0.70265  0.50362  Biso   1.000  O
  O43      1.0000 0.73050  0.58797  0.67007  Biso   1.000  O
  O44      1.0000 0.58280  0.49820  0.67439  Biso   1.000  O
  O45      1.0000 0.56263  0.53654  0.69005  Biso   1.000  O
  Co9      1.0000 0.50208  0.51084  0.69432  Biso   1.000  Co
  Co10     1.0000 0.52676  0.44824  0.66193  Biso   1.000  Co
  Co11     1.0000 0.83125  0.67543  0.47235  Biso   1.000  Co
  Co12     1.0000 0.80658  0.58815  0.50474  Biso   1.000  Co
  C166     1.0000 0.36045  0.23549  0.46317  Biso   1.000  C
  C167     1.0000 0.37136  0.27648  0.45961  Biso   1.000  C
  C168     1.0000 0.34836  0.28525  0.44524  Biso   1.000  C
  H136     1.0000 0.32867  0.26513  0.43643  Biso   1.000  H
  C169     1.0000 0.35474  0.32393  0.44408  Biso   1.000  C
  H137     1.0000 0.33937  0.32983  0.43443  Biso   1.000  H
  C170     1.0000 0.38420  0.35392  0.45738  Biso   1.000  C
  H138     1.0000 0.38847  0.37983  0.45663  Biso   1.000  H
  C171     1.0000 0.40706  0.34513  0.47171  Biso   1.000  C
  C172     1.0000 0.40081  0.30654  0.47287  Biso   1.000  C
  H139     1.0000 0.41627  0.30073  0.48243  Biso   1.000  H
  C173     1.0000 0.46015  0.37122  0.49816  Biso   1.000  C
  H140     1.0000 0.47697  0.36323  0.49013  Biso   1.000  H
  H141     1.0000 0.44487  0.35113  0.50943  Biso   1.000  H
  C174     1.0000 0.48578  0.41252  0.50929  Biso   1.000  C
  C175     1.0000 0.51531  0.44341  0.49689  Biso   1.000  C
  C176     1.0000 0.53403  0.48064  0.50637  Biso   1.000  C
  C177     1.0000 0.52784  0.48712  0.52825  Biso   1.000  C
  C178     1.0000 0.49948  0.45527  0.54062  Biso   1.000  C
  C179     1.0000 0.47601  0.41678  0.53068  Biso   1.000  C
  C180     1.0000 0.44224  0.38380  0.54352  Biso   1.000  C
  H142     1.0000 0.42037  0.36823  0.53343  Biso   1.000  H
  H143     1.0000 0.43357  0.39503  0.55513  Biso   1.000  H
  H144     1.0000 0.45107  0.36693  0.55023  Biso   1.000  H
  C181     1.0000 0.52695  0.43733  0.47356  Biso   1.000  C
  H145     1.0000 0.53057  0.41453  0.47353  Biso   1.000  H
  H146     1.0000 0.55147  0.46063  0.46923  Biso   1.000  H
  H147     1.0000 0.50627  0.43313  0.46313  Biso   1.000  H
  C182     1.0000 0.55039  0.52769  0.53848  Biso   1.000  C
  H148     1.0000 0.57457  0.54363  0.53013  Biso   1.000  H
  H149     1.0000 0.55687  0.52543  0.55383  Biso   1.000  H
  H150     1.0000 0.53427  0.54023  0.53813  Biso   1.000  H
  C183     1.0000 0.56254  0.51662  0.49271  Biso   1.000  C
  H151     1.0000 0.55597  0.51163  0.47683  Biso   1.000  H
  H152     1.0000 0.56057  0.53973  0.49723  Biso   1.000  H
  C184     1.0000 0.63258  0.55745  0.48604  Biso   1.000  C
  C185     1.0000 0.62526  0.58234  0.47249  Biso   1.000  C
  H153     1.0000 0.59907  0.57623  0.46963  Biso   1.000  H
  C186     1.0000 0.65626  0.61551  0.46335  Biso   1.000  C
  H154     1.0000 0.65137  0.63303  0.45503  Biso   1.000  H
  C187     1.0000 0.69511  0.62363  0.46631  Biso   1.000  C
  H155     1.0000 0.71627  0.64553  0.45933  Biso   1.000  H
  C188     1.0000 0.70200  0.59780  0.48013  Biso   1.000  C
  C189     1.0000 0.67034  0.56501  0.48966  Biso   1.000  C
  H156     1.0000 0.67477  0.54783  0.49863  Biso   1.000  H
  C190     1.0000 0.74391  0.60694  0.48397  Biso   1.000  C
  C191     1.0000 0.49079  0.46110  0.56445  Biso   1.000  C
  H157     1.0000 0.47957  0.43593  0.57243  Biso   1.000  H
  H158     1.0000 0.51547  0.48003  0.57193  Biso   1.000  H
  C192     1.0000 0.45678  0.48752  0.58469  Biso   1.000  C
  C193     1.0000 0.43014  0.50274  0.58395  Biso   1.000  C
  H159     1.0000 0.41837  0.50323  0.57033  Biso   1.000  H
  C194     1.0000 0.42180  0.51654  0.60277  Biso   1.000  C
  H160     1.0000 0.40487  0.52713  0.60203  Biso   1.000  H
  C195     1.0000 0.43846  0.51501  0.62344  Biso   1.000  C
  H161     1.0000 0.43127  0.52293  0.63653  Biso   1.000  H
  C196     1.0000 0.46575  0.50154  0.62423  Biso   1.000  C
  C197     1.0000 0.47336  0.48745  0.60479  Biso   1.000  C
  H162     1.0000 0.49077  0.47743  0.60543  Biso   1.000  H
  C198     1.0000 0.48395  0.49967  0.64563  Biso   1.000  C
  O46      1.0000 0.33055  0.20800  0.45283  Biso   1.000  O
  O47      1.0000 0.37699  0.22518  0.47705  Biso   1.000  O
  O48      1.0000 0.43409  0.37569  0.48289  Biso   1.000  O
  O49      1.0000 0.46396  0.47533  0.56510  Biso   1.000  O
  O50      1.0000 0.50803  0.48694  0.64466  Biso   1.000  O
  O51      1.0000 0.47453  0.51051  0.66304  Biso   1.000  O
  O52      1.0000 0.60284  0.52414  0.49659  Biso   1.000  O
  O53      1.0000 0.75054  0.58207  0.49227  Biso   1.000  O
  O54      1.0000 0.77071  0.64058  0.47661  Biso   1.000  O
  Co13     1.0000 0.00876  0.49792  0.69432  Biso   1.000  Co
  Co14     1.0000 0.92148  0.47324  0.66193  Biso   1.000  Co
  C199     1.0000 0.56883  0.02711  0.70349  Biso   1.000  C
  C200     1.0000 0.60982  0.03802  0.70705  Biso   1.000  C
  C201     1.0000 0.61859  0.01502  0.72142  Biso   1.000  C
  H163     1.0000 0.59847  0.99533  0.73023  Biso   1.000  H
  C202     1.0000 0.65727  0.02140  0.72258  Biso   1.000  C
  H164     1.0000 0.66317  0.00603  0.73223  Biso   1.000  H
  C203     1.0000 0.68726  0.05086  0.70928  Biso   1.000  C
  H165     1.0000 0.71317  0.05513  0.71003  Biso   1.000  H
  C204     1.0000 0.67847  0.07372  0.69495  Biso   1.000  C
  C205     1.0000 0.63988  0.06747  0.69379  Biso   1.000  C
  H166     1.0000 0.63407  0.08293  0.68423  Biso   1.000  H
  C206     1.0000 0.70456  0.12681  0.66850  Biso   1.000  C
  H167     1.0000 0.69657  0.14363  0.67653  Biso   1.000  H
  H168     1.0000 0.68447  0.11153  0.65723  Biso   1.000  H
  C207     1.0000 0.74586  0.15244  0.65737  Biso   1.000  C
  C208     1.0000 0.77675  0.18197  0.66977  Biso   1.000  C
  C209     1.0000 0.81398  0.20069  0.66029  Biso   1.000  C
  C210     1.0000 0.82046  0.19450  0.63841  Biso   1.000  C
  C211     1.0000 0.78861  0.16614  0.62604  Biso   1.000  C
  C212     1.0000 0.75012  0.14267  0.63598  Biso   1.000  C
  C213     1.0000 0.71714  0.10890  0.62314  Biso   1.000  C
  H169     1.0000 0.70157  0.08703  0.63323  Biso   1.000  H
  H170     1.0000 0.72837  0.10023  0.61153  Biso   1.000  H
  H171     1.0000 0.70027  0.11773  0.61643  Biso   1.000  H
  C214     1.0000 0.77067  0.19361  0.69310  Biso   1.000  C
  H172     1.0000 0.74787  0.19723  0.69313  Biso   1.000  H
  H173     1.0000 0.79397  0.21813  0.69743  Biso   1.000  H
  H174     1.0000 0.76647  0.17293  0.70353  Biso   1.000  H
  C215     1.0000 0.86103  0.21705  0.62818  Biso   1.000  C
  H175     1.0000 0.87697  0.24123  0.63653  Biso   1.000  H
  H176     1.0000 0.85877  0.22353  0.61283  Biso   1.000  H
  H177     1.0000 0.87357  0.20093  0.62853  Biso   1.000  H
  C216     1.0000 0.84996  0.22920  0.67395  Biso   1.000  C
  H178     1.0000 0.84497  0.22263  0.68983  Biso   1.000  H
  H179     1.0000 0.87307  0.22723  0.66943  Biso   1.000  H
  C217     1.0000 0.89079  0.29924  0.68062  Biso   1.000  C
  C218     1.0000 0.91568  0.29192  0.69417  Biso   1.000  C
  H180     1.0000 0.90957  0.26573  0.69703  Biso   1.000  H
  C219     1.0000 0.94885  0.32292  0.70331  Biso   1.000  C
  H181     1.0000 0.96637  0.31803  0.71163  Biso   1.000  H
  C220     1.0000 0.95697  0.36177  0.70035  Biso   1.000  C
  H182     1.0000 0.97887  0.38293  0.70733  Biso   1.000  H
  C221     1.0000 0.93114  0.36866  0.68653  Biso   1.000  C
  C222     1.0000 0.89835  0.33700  0.67700  Biso   1.000  C
  H183     1.0000 0.88117  0.34143  0.66803  Biso   1.000  H
  C223     1.0000 0.94028  0.41057  0.68269  Biso   1.000  C
  C224     1.0000 0.79444  0.15745  0.60221  Biso   1.000  C
  H184     1.0000 0.76927  0.14623  0.59423  Biso   1.000  H
  H185     1.0000 0.81337  0.18213  0.59473  Biso   1.000  H
  C225     1.0000 0.82086  0.12344  0.58197  Biso   1.000  C
  C226     1.0000 0.83608  0.09680  0.58271  Biso   1.000  C
  H186     1.0000 0.83657  0.08503  0.59633  Biso   1.000  H
  C227     1.0000 0.84988  0.08846  0.56389  Biso   1.000  C
  H187     1.0000 0.86047  0.07153  0.56463  Biso   1.000  H
  C228     1.0000 0.84835  0.10512  0.54322  Biso   1.000  C
  H188     1.0000 0.85627  0.09793  0.53013  Biso   1.000  H
  C229     1.0000 0.83488  0.13241  0.54243  Biso   1.000  C
  C230     1.0000 0.82079  0.14002  0.56187  Biso   1.000  C
  H189     1.0000 0.81077  0.15743  0.56123  Biso   1.000  H
  C231     1.0000 0.83301  0.15061  0.52103  Biso   1.000  C
  O55      1.0000 0.54134  0.99721  0.71383  Biso   1.000  O
  O56      1.0000 0.55852  0.04365  0.68961  Biso   1.000  O
  O57      1.0000 0.70903  0.10075  0.68377  Biso   1.000  O
  O58      1.0000 0.80867  0.13062  0.60156  Biso   1.000  O
  O59      1.0000 0.82028  0.17469  0.52200  Biso   1.000  O
  O60      1.0000 0.84385  0.14119  0.50362  Biso   1.000  O
  O61      1.0000 0.85748  0.26950  0.67007  Biso   1.000  O
  O62      1.0000 0.91541  0.41720  0.67439  Biso   1.000  O
  O63      1.0000 0.97392  0.43737  0.69005  Biso   1.000  O
  C232     1.0000 0.87505  0.63955  0.46317  Biso   1.000  C
  C233     1.0000 0.90513  0.62864  0.45961  Biso   1.000  C
  C234     1.0000 0.93690  0.65164  0.44524  Biso   1.000  C
  H190     1.0000 0.93647  0.67133  0.43643  Biso   1.000  H
  C235     1.0000 0.96920  0.64526  0.44408  Biso   1.000  C
  H191     1.0000 0.99047  0.66063  0.43443  Biso   1.000  H
  C236     1.0000 0.96973  0.61580  0.45738  Biso   1.000  C
  H192     1.0000 0.99137  0.61153  0.45663  Biso   1.000  H
  C237     1.0000 0.93808  0.59294  0.47171  Biso   1.000  C
  C238     1.0000 0.90574  0.59919  0.47287  Biso   1.000  C
  H193     1.0000 0.88447  0.58373  0.48243  Biso   1.000  H
  C239     1.0000 0.91108  0.53985  0.49816  Biso   1.000  C
  H194     1.0000 0.88627  0.52303  0.49013  Biso   1.000  H
  H195     1.0000 0.90627  0.55513  0.50943  Biso   1.000  H
  C240     1.0000 0.92675  0.51422  0.50929  Biso   1.000  C
  C241     1.0000 0.92811  0.48469  0.49689  Biso   1.000  C
  C242     1.0000 0.94662  0.46597  0.50637  Biso   1.000  C
  C243     1.0000 0.95929  0.47216  0.52825  Biso   1.000  C
  C244     1.0000 0.95580  0.50052  0.54062  Biso   1.000  C
  C245     1.0000 0.94078  0.52399  0.53068  Biso   1.000  C
  C246     1.0000 0.94157  0.55776  0.54352  Biso   1.000  C
  H196     1.0000 0.94787  0.57963  0.53343  Biso   1.000  H
  H197     1.0000 0.96147  0.56643  0.55513  Biso   1.000  H
  H198     1.0000 0.91587  0.54893  0.55023  Biso   1.000  H
  C247     1.0000 0.91039  0.47305  0.47356  Biso   1.000  C
  H199     1.0000 0.88397  0.46943  0.47353  Biso   1.000  H
  H200     1.0000 0.90917  0.44853  0.46923  Biso   1.000  H
  H201     1.0000 0.92687  0.49373  0.46313  Biso   1.000  H
  C248     1.0000 0.97731  0.44961  0.53848  Biso   1.000  C
  H202     1.0000 0.96907  0.42543  0.53013  Biso   1.000  H
  H203     1.0000 0.96857  0.44313  0.55383  Biso   1.000  H
  H204     1.0000 0.00597  0.46573  0.53813  Biso   1.000  H
  C249     1.0000 0.95409  0.43746  0.49271  Biso   1.000  C
  H205     1.0000 0.95567  0.44403  0.47683  Biso   1.000  H
  H206     1.0000 0.97917  0.43943  0.49723  Biso   1.000  H
  C250     1.0000 0.92488  0.36742  0.48604  Biso   1.000  C
  C251     1.0000 0.95709  0.37474  0.47249  Biso   1.000  C
  H207     1.0000 0.97717  0.40093  0.46963  Biso   1.000  H
  C252     1.0000 0.95926  0.34374  0.46335  Biso   1.000  C
  H208     1.0000 0.98167  0.34863  0.45503  Biso   1.000  H
  C253     1.0000 0.92853  0.30489  0.46631  Biso   1.000  C
  H209     1.0000 0.92927  0.28373  0.45933  Biso   1.000  H
  C254     1.0000 0.89581  0.29800  0.48013  Biso   1.000  C
  C255     1.0000 0.89468  0.32966  0.48966  Biso   1.000  C
  H210     1.0000 0.87307  0.32523  0.49863  Biso   1.000  H
  C256     1.0000 0.86304  0.25609  0.48397  Biso   1.000  C
  C257     1.0000 0.97032  0.50921  0.56445  Biso   1.000  C
  H211     1.0000 0.95637  0.52043  0.57243  Biso   1.000  H
  H212     1.0000 0.96457  0.48453  0.57193  Biso   1.000  H
  C258     1.0000 0.03075  0.54322  0.58469  Biso   1.000  C
  C259     1.0000 0.07261  0.56986  0.58395  Biso   1.000  C
  H213     1.0000 0.08487  0.58163  0.57033  Biso   1.000  H
  C260     1.0000 0.09475  0.57820  0.60277  Biso   1.000  C
  H214     1.0000 0.12227  0.59513  0.60203  Biso   1.000  H
  C261     1.0000 0.07656  0.56154  0.62344  Biso   1.000  C
  H215     1.0000 0.09167  0.56873  0.63653  Biso   1.000  H
  C262     1.0000 0.03580  0.53425  0.62423  Biso   1.000  C
  C263     1.0000 0.01410  0.52664  0.60479  Biso   1.000  C
  H216     1.0000 0.98667  0.50923  0.60543  Biso   1.000  H
  C264     1.0000 0.01573  0.51605  0.64563  Biso   1.000  C
  O64      1.0000 0.87746  0.66945  0.45283  Biso   1.000  O
  O65      1.0000 0.84820  0.62301  0.47705  Biso   1.000  O
  O66      1.0000 0.94161  0.56591  0.48289  Biso   1.000  O
  O67      1.0000 0.01138  0.53604  0.56510  Biso   1.000  O
  O68      1.0000 0.97892  0.49197  0.64466  Biso   1.000  O
  O69      1.0000 0.03599  0.52547  0.66304  Biso   1.000  O
  O70      1.0000 0.92131  0.39716  0.49659  Biso   1.000  O
  O71      1.0000 0.83154  0.24946  0.49227  Biso   1.000  O
  O72      1.0000 0.86988  0.22929  0.47661  Biso   1.000  O
  Co15     1.0000 0.84418  0.16875  0.47235  Biso   1.000  Co
  Co16     1.0000 0.78157  0.19342  0.50474  Biso   1.000  Co
  C265     1.0000 0.63955  0.87505  0.03683  Biso   1.000  C
  C266     1.0000 0.62864  0.90513  0.04039  Biso   1.000  C
  C267     1.0000 0.65164  0.93690  0.05476  Biso   1.000  C
  H217     1.0000 0.67133  0.93647  0.06357  Biso   1.000  H
  C268     1.0000 0.64526  0.96920  0.05592  Biso   1.000  C
  H218     1.0000 0.66063  0.99047  0.06557  Biso   1.000  H
  C269     1.0000 0.61580  0.96973  0.04262  Biso   1.000  C
  H219     1.0000 0.61153  0.99137  0.04337  Biso   1.000  H
  C270     1.0000 0.59294  0.93808  0.02829  Biso   1.000  C
  C271     1.0000 0.59919  0.90574  0.02713  Biso   1.000  C
  H220     1.0000 0.58373  0.88447  0.01757  Biso   1.000  H
  C272     1.0000 0.53985  0.91108  0.00184  Biso   1.000  C
  H221     1.0000 0.52303  0.88627  0.00987  Biso   1.000  H
  H222     1.0000 0.55513  0.90627  0.99057  Biso   1.000  H
  C273     1.0000 0.51422  0.92675  0.99071  Biso   1.000  C
  C274     1.0000 0.48469  0.92811  0.00311  Biso   1.000  C
  C275     1.0000 0.46597  0.94662  0.99363  Biso   1.000  C
  C276     1.0000 0.47216  0.95929  0.97175  Biso   1.000  C
  C277     1.0000 0.50052  0.95580  0.95938  Biso   1.000  C
  C278     1.0000 0.52399  0.94078  0.96932  Biso   1.000  C
  C279     1.0000 0.55776  0.94157  0.95648  Biso   1.000  C
  H223     1.0000 0.57963  0.94787  0.96657  Biso   1.000  H
  H224     1.0000 0.56643  0.96147  0.94487  Biso   1.000  H
  H225     1.0000 0.54893  0.91587  0.94977  Biso   1.000  H
  C280     1.0000 0.47305  0.91039  0.02644  Biso   1.000  C
  H226     1.0000 0.46943  0.88397  0.02647  Biso   1.000  H
  H227     1.0000 0.44853  0.90917  0.03077  Biso   1.000  H
  H228     1.0000 0.49373  0.92687  0.03687  Biso   1.000  H
  C281     1.0000 0.44961  0.97731  0.96152  Biso   1.000  C
  H229     1.0000 0.42543  0.96907  0.96987  Biso   1.000  H
  H230     1.0000 0.44313  0.96857  0.94617  Biso   1.000  H
  H231     1.0000 0.46573  0.00597  0.96187  Biso   1.000  H
  C282     1.0000 0.43746  0.95409  0.00729  Biso   1.000  C
  H232     1.0000 0.44403  0.95567  0.02317  Biso   1.000  H
  H233     1.0000 0.43943  0.97917  0.00277  Biso   1.000  H
  C283     1.0000 0.36742  0.92488  0.01396  Biso   1.000  C
  C284     1.0000 0.37474  0.95709  0.02751  Biso   1.000  C
  H234     1.0000 0.40093  0.97717  0.03037  Biso   1.000  H
  C285     1.0000 0.34374  0.95926  0.03665  Biso   1.000  C
  H235     1.0000 0.34863  0.98167  0.04497  Biso   1.000  H
  C286     1.0000 0.30489  0.92853  0.03369  Biso   1.000  C
  H236     1.0000 0.28373  0.92927  0.04067  Biso   1.000  H
  C287     1.0000 0.29800  0.89581  0.01987  Biso   1.000  C
  C288     1.0000 0.32966  0.89468  0.01034  Biso   1.000  C
  H237     1.0000 0.32523  0.87307  0.00137  Biso   1.000  H
  C289     1.0000 0.25609  0.86304  0.01603  Biso   1.000  C
  C290     1.0000 0.50921  0.97032  0.93555  Biso   1.000  C
  H238     1.0000 0.52043  0.95637  0.92757  Biso   1.000  H
  H239     1.0000 0.48453  0.96457  0.92807  Biso   1.000  H
  C291     1.0000 0.54322  0.03075  0.91531  Biso   1.000  C
  C292     1.0000 0.56986  0.07261  0.91605  Biso   1.000  C
  H240     1.0000 0.58163  0.08487  0.92967  Biso   1.000  H
  C293     1.0000 0.57820  0.09475  0.89723  Biso   1.000  C
  H241     1.0000 0.59513  0.12227  0.89797  Biso   1.000  H
  C294     1.0000 0.56154  0.07656  0.87656  Biso   1.000  C
  H242     1.0000 0.56873  0.09167  0.86347  Biso   1.000  H
  C295     1.0000 0.53425  0.03580  0.87577  Biso   1.000  C
  C296     1.0000 0.52664  0.01410  0.89521  Biso   1.000  C
  H243     1.0000 0.50923  0.98667  0.89457  Biso   1.000  H
  C297     1.0000 0.51605  0.01573  0.85437  Biso   1.000  C
  O73      1.0000 0.66945  0.87746  0.04717  Biso   1.000  O
  O74      1.0000 0.62301  0.84820  0.02295  Biso   1.000  O
  O75      1.0000 0.56591  0.94161  0.01711  Biso   1.000  O
  O76      1.0000 0.53604  0.01138  0.93490  Biso   1.000  O
  O77      1.0000 0.49197  0.97892  0.85534  Biso   1.000  O
  O78      1.0000 0.52547  0.03599  0.83696  Biso   1.000  O
  O79      1.0000 0.39716  0.92131  0.00341  Biso   1.000  O
  O80      1.0000 0.24946  0.83154  0.00773  Biso   1.000  O
  O81      1.0000 0.22929  0.86988  0.02339  Biso   1.000  O
  Co17     1.0000 0.16875  0.84418  0.02765  Biso   1.000  Co
  Co18     1.0000 0.19342  0.78157  0.99526  Biso   1.000  Co
  Co19     1.0000 0.49792  0.00876  0.80568  Biso   1.000  Co
  Co20     1.0000 0.47324  0.92148  0.83807  Biso   1.000  Co
  C298     1.0000 0.02711  0.56883  0.79651  Biso   1.000  C
  C299     1.0000 0.03802  0.60982  0.79295  Biso   1.000  C
  C300     1.0000 0.01502  0.61859  0.77858  Biso   1.000  C
  H244     1.0000 0.99533  0.59847  0.76977  Biso   1.000  H
  C301     1.0000 0.02140  0.65727  0.77742  Biso   1.000  C
  H245     1.0000 0.00603  0.66317  0.76777  Biso   1.000  H
  C302     1.0000 0.05086  0.68726  0.79072  Biso   1.000  C
  H246     1.0000 0.05513  0.71317  0.78997  Biso   1.000  H
  C303     1.0000 0.07372  0.67847  0.80505  Biso   1.000  C
  C304     1.0000 0.06747  0.63988  0.80621  Biso   1.000  C
  H247     1.0000 0.08293  0.63407  0.81577  Biso   1.000  H
  C305     1.0000 0.12681  0.70456  0.83150  Biso   1.000  C
  H248     1.0000 0.14363  0.69657  0.82347  Biso   1.000  H
  H249     1.0000 0.11153  0.68447  0.84277  Biso   1.000  H
  C306     1.0000 0.15244  0.74586  0.84263  Biso   1.000  C
  C307     1.0000 0.18197  0.77675  0.83023  Biso   1.000  C
  C308     1.0000 0.20069  0.81398  0.83971  Biso   1.000  C
  C309     1.0000 0.19450  0.82046  0.86159  Biso   1.000  C
  C310     1.0000 0.16614  0.78861  0.87396  Biso   1.000  C
  C311     1.0000 0.14267  0.75012  0.86402  Biso   1.000  C
  C312     1.0000 0.10890  0.71714  0.87686  Biso   1.000  C
  H250     1.0000 0.08703  0.70157  0.86677  Biso   1.000  H
  H251     1.0000 0.10023  0.72837  0.88847  Biso   1.000  H
  H252     1.0000 0.11773  0.70027  0.88357  Biso   1.000  H
  C313     1.0000 0.19361  0.77067  0.80690  Biso   1.000  C
  H253     1.0000 0.19723  0.74787  0.80687  Biso   1.000  H
  H254     1.0000 0.21813  0.79397  0.80257  Biso   1.000  H
  H255     1.0000 0.17293  0.76647  0.79647  Biso   1.000  H
  C314     1.0000 0.21705  0.86103  0.87182  Biso   1.000  C
  H256     1.0000 0.24123  0.87697  0.86347  Biso   1.000  H
  H257     1.0000 0.22353  0.85877  0.88717  Biso   1.000  H
  H258     1.0000 0.20093  0.87357  0.87147  Biso   1.000  H
  C315     1.0000 0.22920  0.84996  0.82605  Biso   1.000  C
  H259     1.0000 0.22263  0.84497  0.81017  Biso   1.000  H
  H260     1.0000 0.22723  0.87307  0.83057  Biso   1.000  H
  C316     1.0000 0.29924  0.89079  0.81938  Biso   1.000  C
  C317     1.0000 0.29192  0.91568  0.80583  Biso   1.000  C
  H261     1.0000 0.26573  0.90957  0.80297  Biso   1.000  H
  C318     1.0000 0.32292  0.94885  0.79669  Biso   1.000  C
  H262     1.0000 0.31803  0.96637  0.78837  Biso   1.000  H
  C319     1.0000 0.36177  0.95697  0.79965  Biso   1.000  C
  H263     1.0000 0.38293  0.97887  0.79267  Biso   1.000  H
  C320     1.0000 0.36866  0.93114  0.81347  Biso   1.000  C
  C321     1.0000 0.33700  0.89835  0.82300  Biso   1.000  C
  H264     1.0000 0.34143  0.88117  0.83197  Biso   1.000  H
  C322     1.0000 0.41057  0.94028  0.81731  Biso   1.000  C
  C323     1.0000 0.15745  0.79444  0.89779  Biso   1.000  C
  H265     1.0000 0.14623  0.76927  0.90577  Biso   1.000  H
  H266     1.0000 0.18213  0.81337  0.90527  Biso   1.000  H
  C324     1.0000 0.12344  0.82086  0.91803  Biso   1.000  C
  C325     1.0000 0.09680  0.83608  0.91729  Biso   1.000  C
  H267     1.0000 0.08503  0.83657  0.90367  Biso   1.000  H
  C326     1.0000 0.08846  0.84988  0.93611  Biso   1.000  C
  H268     1.0000 0.07153  0.86047  0.93537  Biso   1.000  H
  C327     1.0000 0.10512  0.84835  0.95678  Biso   1.000  C
  H269     1.0000 0.09793  0.85627  0.96987  Biso   1.000  H
  C328     1.0000 0.13241  0.83488  0.95757  Biso   1.000  C
  C329     1.0000 0.14002  0.82079  0.93813  Biso   1.000  C
  H270     1.0000 0.15743  0.81077  0.93877  Biso   1.000  H
  C330     1.0000 0.15061  0.83301  0.97897  Biso   1.000  C
  O82      1.0000 0.99721  0.54134  0.78617  Biso   1.000  O
  O83      1.0000 0.04365  0.55852  0.81039  Biso   1.000  O
  O84      1.0000 0.10075  0.70903  0.81623  Biso   1.000  O
  O85      1.0000 0.13062  0.80867  0.89844  Biso   1.000  O
  O86      1.0000 0.17469  0.82028  0.97800  Biso   1.000  O
  O87      1.0000 0.14119  0.84385  0.99638  Biso   1.000  O
  O88      1.0000 0.26950  0.85748  0.82993  Biso   1.000  O
  O89      1.0000 0.41720  0.91541  0.82561  Biso   1.000  O
  O90      1.0000 0.43737  0.97392  0.80995  Biso   1.000  O
  Co21     1.0000 0.67543  0.83125  0.02765  Biso   1.000  Co
  Co22     1.0000 0.58815  0.80658  0.99526  Biso   1.000  Co
  C331     1.0000 0.23549  0.36045  0.03683  Biso   1.000  C
  C332     1.0000 0.27648  0.37136  0.04039  Biso   1.000  C
  C333     1.0000 0.28525  0.34836  0.05476  Biso   1.000  C
  H271     1.0000 0.26513  0.32867  0.06357  Biso   1.000  H
  C334     1.0000 0.32393  0.35474  0.05592  Biso   1.000  C
  H272     1.0000 0.32983  0.33937  0.06557  Biso   1.000  H
  C335     1.0000 0.35392  0.38420  0.04262  Biso   1.000  C
  H273     1.0000 0.37983  0.38847  0.04337  Biso   1.000  H
  C336     1.0000 0.34513  0.40706  0.02829  Biso   1.000  C
  C337     1.0000 0.30654  0.40081  0.02713  Biso   1.000  C
  H274     1.0000 0.30073  0.41627  0.01757  Biso   1.000  H
  C338     1.0000 0.37122  0.46015  0.00184  Biso   1.000  C
  H275     1.0000 0.36323  0.47697  0.00987  Biso   1.000  H
  H276     1.0000 0.35113  0.44487  0.99057  Biso   1.000  H
  C339     1.0000 0.41252  0.48578  0.99071  Biso   1.000  C
  C340     1.0000 0.44341  0.51531  0.00311  Biso   1.000  C
  C341     1.0000 0.48064  0.53403  0.99363  Biso   1.000  C
  C342     1.0000 0.48712  0.52784  0.97175  Biso   1.000  C
  C343     1.0000 0.45527  0.49948  0.95938  Biso   1.000  C
  C344     1.0000 0.41678  0.47601  0.96932  Biso   1.000  C
  C345     1.0000 0.38380  0.44224  0.95648  Biso   1.000  C
  H277     1.0000 0.36823  0.42037  0.96657  Biso   1.000  H
  H278     1.0000 0.39503  0.43357  0.94487  Biso   1.000  H
  H279     1.0000 0.36693  0.45107  0.94977  Biso   1.000  H
  C346     1.0000 0.43733  0.52695  0.02644  Biso   1.000  C
  H280     1.0000 0.41453  0.53057  0.02647  Biso   1.000  H
  H281     1.0000 0.46063  0.55147  0.03077  Biso   1.000  H
  H282     1.0000 0.43313  0.50627  0.03687  Biso   1.000  H
  C347     1.0000 0.52769  0.55039  0.96152  Biso   1.000  C
  H283     1.0000 0.54363  0.57457  0.96987  Biso   1.000  H
  H284     1.0000 0.52543  0.55687  0.94617  Biso   1.000  H
  H285     1.0000 0.54023  0.53427  0.96187  Biso   1.000  H
  C348     1.0000 0.51662  0.56254  0.00729  Biso   1.000  C
  H286     1.0000 0.51163  0.55597  0.02317  Biso   1.000  H
  H287     1.0000 0.53973  0.56057  0.00277  Biso   1.000  H
  C349     1.0000 0.55745  0.63258  0.01396  Biso   1.000  C
  C350     1.0000 0.58234  0.62526  0.02751  Biso   1.000  C
  H288     1.0000 0.57623  0.59907  0.03037  Biso   1.000  H
  C351     1.0000 0.61551  0.65626  0.03665  Biso   1.000  C
  H289     1.0000 0.63303  0.65137  0.04497  Biso   1.000  H
  C352     1.0000 0.62363  0.69511  0.03369  Biso   1.000  C
  H290     1.0000 0.64553  0.71627  0.04067  Biso   1.000  H
  C353     1.0000 0.59780  0.70200  0.01987  Biso   1.000  C
  C354     1.0000 0.56501  0.67034  0.01034  Biso   1.000  C
  H291     1.0000 0.54783  0.67477  0.00137  Biso   1.000  H
  C355     1.0000 0.60694  0.74391  0.01603  Biso   1.000  C
  C356     1.0000 0.46110  0.49079  0.93555  Biso   1.000  C
  H292     1.0000 0.43593  0.47957  0.92757  Biso   1.000  H
  H293     1.0000 0.48003  0.51547  0.92807  Biso   1.000  H
  C357     1.0000 0.48752  0.45678  0.91531  Biso   1.000  C
  C358     1.0000 0.50274  0.43014  0.91605  Biso   1.000  C
  H294     1.0000 0.50323  0.41837  0.92967  Biso   1.000  H
  C359     1.0000 0.51654  0.42180  0.89723  Biso   1.000  C
  H295     1.0000 0.52713  0.40487  0.89797  Biso   1.000  H
  C360     1.0000 0.51501  0.43846  0.87656  Biso   1.000  C
  H296     1.0000 0.52293  0.43127  0.86347  Biso   1.000  H
  C361     1.0000 0.50154  0.46575  0.87577  Biso   1.000  C
  C362     1.0000 0.48745  0.47336  0.89521  Biso   1.000  C
  H297     1.0000 0.47743  0.49077  0.89457  Biso   1.000  H
  C363     1.0000 0.49967  0.48395  0.85437  Biso   1.000  C
  O91      1.0000 0.20800  0.33055  0.04717  Biso   1.000  O
  O92      1.0000 0.22518  0.37699  0.02295  Biso   1.000  O
  O93      1.0000 0.37569  0.43409  0.01711  Biso   1.000  O
  O94      1.0000 0.47533  0.46396  0.93490  Biso   1.000  O
  O95      1.0000 0.48694  0.50803  0.85534  Biso   1.000  O
  O96      1.0000 0.51051  0.47453  0.83696  Biso   1.000  O
  O97      1.0000 0.52414  0.60284  0.00341  Biso   1.000  O
  O98      1.0000 0.58207  0.75054  0.00773  Biso   1.000  O
  O99      1.0000 0.64058  0.77071  0.02339  Biso   1.000  O
  C364     1.0000 0.54171  0.97289  0.79651  Biso   1.000  C
  C365     1.0000 0.57179  0.96198  0.79295  Biso   1.000  C
  C366     1.0000 0.60356  0.98498  0.77858  Biso   1.000  C
  H298     1.0000 0.60313  0.00467  0.76977  Biso   1.000  H
  C367     1.0000 0.63586  0.97860  0.77742  Biso   1.000  C
  H299     1.0000 0.65713  0.99397  0.76777  Biso   1.000  H
  C368     1.0000 0.63639  0.94914  0.79072  Biso   1.000  C
  H300     1.0000 0.65803  0.94487  0.78997  Biso   1.000  H
  C369     1.0000 0.60474  0.92628  0.80505  Biso   1.000  C
  C370     1.0000 0.57240  0.93253  0.80621  Biso   1.000  C
  H301     1.0000 0.55113  0.91707  0.81577  Biso   1.000  H
  C371     1.0000 0.57774  0.87319  0.83150  Biso   1.000  C
  H302     1.0000 0.55293  0.85637  0.82347  Biso   1.000  H
  H303     1.0000 0.57293  0.88847  0.84277  Biso   1.000  H
  C372     1.0000 0.59341  0.84756  0.84263  Biso   1.000  C
  C373     1.0000 0.59477  0.81803  0.83023  Biso   1.000  C
  C374     1.0000 0.61328  0.79931  0.83971  Biso   1.000  C
  C375     1.0000 0.62595  0.80550  0.86159  Biso   1.000  C
  C376     1.0000 0.62246  0.83386  0.87396  Biso   1.000  C
  C377     1.0000 0.60744  0.85733  0.86402  Biso   1.000  C
  C378     1.0000 0.60823  0.89110  0.87686  Biso   1.000  C
  H304     1.0000 0.61453  0.91297  0.86677  Biso   1.000  H
  H305     1.0000 0.62813  0.89977  0.88847  Biso   1.000  H
  H306     1.0000 0.58253  0.88227  0.88357  Biso   1.000  H
  C379     1.0000 0.57705  0.80639  0.80690  Biso   1.000  C
  H307     1.0000 0.55063  0.80277  0.80687  Biso   1.000  H
  H308     1.0000 0.57583  0.78187  0.80257  Biso   1.000  H
  H309     1.0000 0.59353  0.82707  0.79647  Biso   1.000  H
  C380     1.0000 0.64397  0.78295  0.87182  Biso   1.000  C
  H310     1.0000 0.63573  0.75877  0.86347  Biso   1.000  H
  H311     1.0000 0.63523  0.77647  0.88717  Biso   1.000  H
  H312     1.0000 0.67263  0.79907  0.87147  Biso   1.000  H
  C381     1.0000 0.62075  0.77080  0.82605  Biso   1.000  C
  H313     1.0000 0.62233  0.77737  0.81017  Biso   1.000  H
  H314     1.0000 0.64583  0.77277  0.83057  Biso   1.000  H
  C382     1.0000 0.59154  0.70076  0.81938  Biso   1.000  C
  C383     1.0000 0.62375  0.70808  0.80583  Biso   1.000  C
  H315     1.0000 0.64383  0.73427  0.80297  Biso   1.000  H
  C384     1.0000 0.62592  0.67708  0.79669  Biso   1.000  C
  H316     1.0000 0.64833  0.68197  0.78837  Biso   1.000  H
  C385     1.0000 0.59519  0.63823  0.79965  Biso   1.000  C
  H317     1.0000 0.59593  0.61707  0.79267  Biso   1.000  H
  C386     1.0000 0.56247  0.63134  0.81347  Biso   1.000  C
  C387     1.0000 0.56134  0.66300  0.82300  Biso   1.000  C
  H318     1.0000 0.53973  0.65857  0.83197  Biso   1.000  H
  C388     1.0000 0.52970  0.58943  0.81731  Biso   1.000  C
  C389     1.0000 0.63698  0.84255  0.89779  Biso   1.000  C
  H319     1.0000 0.62303  0.85377  0.90577  Biso   1.000  H
  H320     1.0000 0.63123  0.81787  0.90527  Biso   1.000  H
  C390     1.0000 0.69741  0.87656  0.91803  Biso   1.000  C
  C391     1.0000 0.73927  0.90320  0.91729  Biso   1.000  C
  H321     1.0000 0.75153  0.91497  0.90367  Biso   1.000  H
  C392     1.0000 0.76141  0.91154  0.93611  Biso   1.000  C
  H322     1.0000 0.78893  0.92847  0.93537  Biso   1.000  H
  C393     1.0000 0.74322  0.89488  0.95678  Biso   1.000  C
  H323     1.0000 0.75833  0.90207  0.96987  Biso   1.000  H
  C394     1.0000 0.70246  0.86759  0.95757  Biso   1.000  C
  C395     1.0000 0.68076  0.85998  0.93813  Biso   1.000  C
  H324     1.0000 0.65333  0.84257  0.93877  Biso   1.000  H
  C396     1.0000 0.68239  0.84939  0.97897  Biso   1.000  C
  O100     1.0000 0.54412  0.00279  0.78617  Biso   1.000  O
  O101     1.0000 0.51486  0.95635  0.81039  Biso   1.000  O
  O102     1.0000 0.60827  0.89925  0.81623  Biso   1.000  O
  O103     1.0000 0.67804  0.86938  0.89844  Biso   1.000  O
  O104     1.0000 0.64558  0.82531  0.97800  Biso   1.000  O
  O105     1.0000 0.70265  0.85881  0.99638  Biso   1.000  O
  O106     1.0000 0.58797  0.73050  0.82993  Biso   1.000  O
  O107     1.0000 0.49820  0.58280  0.82561  Biso   1.000  O
  O108     1.0000 0.53654  0.56263  0.80995  Biso   1.000  O
  Co23     1.0000 0.51084  0.50208  0.80568  Biso   1.000  Co
  Co24     1.0000 0.44824  0.52676  0.83807  Biso   1.000  Co
  C397     1.0000 0.79162  0.09784  0.37016  Biso   1.000  C
  C398     1.0000 0.76154  0.05685  0.37372  Biso   1.000  C
  C399     1.0000 0.72977  0.04808  0.38809  Biso   1.000  C
  H325     1.0000 0.73020  0.06820  0.39690  Biso   1.000  H
  C400     1.0000 0.69747  0.00940  0.38925  Biso   1.000  C
  H326     1.0000 0.67620  0.00350  0.39890  Biso   1.000  H
  C401     1.0000 0.69694  0.97941  0.37595  Biso   1.000  C
  H327     1.0000 0.67530  0.95350  0.37670  Biso   1.000  H
  C402     1.0000 0.72859  0.98820  0.36162  Biso   1.000  C
  C403     1.0000 0.76093  0.02679  0.36046  Biso   1.000  C
  H328     1.0000 0.78220  0.03260  0.35090  Biso   1.000  H
  C404     1.0000 0.75559  0.96211  0.33517  Biso   1.000  C
  H329     1.0000 0.78040  0.97010  0.34320  Biso   1.000  H
  H330     1.0000 0.76040  0.98220  0.32390  Biso   1.000  H
  C405     1.0000 0.73992  0.92081  0.32404  Biso   1.000  C
  C406     1.0000 0.73856  0.88992  0.33644  Biso   1.000  C
  C407     1.0000 0.72005  0.85269  0.32696  Biso   1.000  C
  C408     1.0000 0.70738  0.84621  0.30508  Biso   1.000  C
  C409     1.0000 0.71087  0.87806  0.29271  Biso   1.000  C
  C410     1.0000 0.72589  0.91655  0.30265  Biso   1.000  C
  C411     1.0000 0.72510  0.94953  0.28981  Biso   1.000  C
  H331     1.0000 0.71880  0.96510  0.29990  Biso   1.000  H
  H332     1.0000 0.70520  0.93830  0.27820  Biso   1.000  H
  H333     1.0000 0.75080  0.96640  0.28310  Biso   1.000  H
  C412     1.0000 0.75628  0.89600  0.35977  Biso   1.000  C
  H334     1.0000 0.78270  0.91880  0.35980  Biso   1.000  H
  H335     1.0000 0.75750  0.87270  0.36410  Biso   1.000  H
  H336     1.0000 0.73980  0.90020  0.37020  Biso   1.000  H
  C413     1.0000 0.68936  0.80564  0.29485  Biso   1.000  C
  H337     1.0000 0.69760  0.78970  0.30320  Biso   1.000  H
  H338     1.0000 0.69810  0.80790  0.27950  Biso   1.000  H
  H339     1.0000 0.66070  0.79310  0.29520  Biso   1.000  H
  C414     1.0000 0.71258  0.81671  0.34062  Biso   1.000  C
  H340     1.0000 0.71100  0.82170  0.35650  Biso   1.000  H
  H341     1.0000 0.68750  0.79360  0.33610  Biso   1.000  H
  C415     1.0000 0.74179  0.77588  0.34729  Biso   1.000  C
  C416     1.0000 0.70958  0.75099  0.36084  Biso   1.000  C
  H342     1.0000 0.68950  0.75710  0.36370  Biso   1.000  H
  C417     1.0000 0.70741  0.71782  0.36998  Biso   1.000  C
  H343     1.0000 0.68500  0.70030  0.37830  Biso   1.000  H
  C418     1.0000 0.73814  0.70970  0.36702  Biso   1.000  C
  H344     1.0000 0.73740  0.68780  0.37400  Biso   1.000  H
  C419     1.0000 0.77086  0.73553  0.35320  Biso   1.000  C
  C420     1.0000 0.77199  0.76832  0.34367  Biso   1.000  C
  H345     1.0000 0.79360  0.78550  0.33470  Biso   1.000  H
  C421     1.0000 0.80363  0.72639  0.34936  Biso   1.000  C
  C422     1.0000 0.69635  0.87223  0.26888  Biso   1.000  C
  H346     1.0000 0.71030  0.89740  0.26090  Biso   1.000  H
  H347     1.0000 0.70210  0.85330  0.26140  Biso   1.000  H
  C423     1.0000 0.63592  0.84581  0.24864  Biso   1.000  C
  C424     1.0000 0.59406  0.83059  0.24938  Biso   1.000  C
  H348     1.0000 0.58180  0.83010  0.26300  Biso   1.000  H
  C425     1.0000 0.57192  0.81679  0.23056  Biso   1.000  C
  H349     1.0000 0.54440  0.80620  0.23130  Biso   1.000  H
  C426     1.0000 0.59011  0.81832  0.20989  Biso   1.000  C
  H350     1.0000 0.57500  0.81040  0.19680  Biso   1.000  H
  C427     1.0000 0.63087  0.83179  0.20910  Biso   1.000  C
  C428     1.0000 0.65257  0.84588  0.22854  Biso   1.000  C
  H351     1.0000 0.68000  0.85590  0.22790  Biso   1.000  H
  C429     1.0000 0.65094  0.83366  0.18770  Biso   1.000  C
  O109     1.0000 0.78921  0.12533  0.38050  Biso   1.000  O
  O110     1.0000 0.81847  0.10815  0.35628  Biso   1.000  O
  O111     1.0000 0.72506  0.95764  0.35044  Biso   1.000  O
  O112     1.0000 0.65529  0.85800  0.26823  Biso   1.000  O
  O113     1.0000 0.68775  0.84639  0.18867  Biso   1.000  O
  O114     1.0000 0.63068  0.82282  0.17029  Biso   1.000  O
  O115     1.0000 0.74536  0.80919  0.33674  Biso   1.000  O
  O116     1.0000 0.83513  0.75126  0.34106  Biso   1.000  O
  O117     1.0000 0.79679  0.69275  0.35672  Biso   1.000  O
  Co25     1.0000 0.82249  0.65791  0.36099  Biso   1.000  Co
  Co26     1.0000 0.88510  0.74518  0.32860  Biso   1.000  Co
  C430     1.0000 0.09784  0.79162  0.12984  Biso   1.000  C
  C431     1.0000 0.05685  0.76154  0.12628  Biso   1.000  C
  C432     1.0000 0.04808  0.72977  0.11191  Biso   1.000  C
  H352     1.0000 0.06820  0.73020  0.10310  Biso   1.000  H
  C433     1.0000 0.00940  0.69747  0.11075  Biso   1.000  C
  H353     1.0000 0.00350  0.67620  0.10110  Biso   1.000  H
  C434     1.0000 0.97941  0.69694  0.12405  Biso   1.000  C
  H354     1.0000 0.95350  0.67530  0.12330  Biso   1.000  H
  C435     1.0000 0.98820  0.72859  0.13838  Biso   1.000  C
  C436     1.0000 0.02679  0.76093  0.13954  Biso   1.000  C
  H355     1.0000 0.03260  0.78220  0.14910  Biso   1.000  H
  C437     1.0000 0.96211  0.75559  0.16483  Biso   1.000  C
  H356     1.0000 0.97010  0.78040  0.15680  Biso   1.000  H
  H357     1.0000 0.98220  0.76040  0.17610  Biso   1.000  H
  C438     1.0000 0.92081  0.73992  0.17596  Biso   1.000  C
  C439     1.0000 0.88992  0.73856  0.16356  Biso   1.000  C
  C440     1.0000 0.85269  0.72005  0.17304  Biso   1.000  C
  C441     1.0000 0.84621  0.70738  0.19492  Biso   1.000  C
  C442     1.0000 0.87806  0.71087  0.20729  Biso   1.000  C
  C443     1.0000 0.91655  0.72589  0.19735  Biso   1.000  C
  C444     1.0000 0.94953  0.72510  0.21019  Biso   1.000  C
  H358     1.0000 0.96510  0.71880  0.20010  Biso   1.000  H
  H359     1.0000 0.93830  0.70520  0.22180  Biso   1.000  H
  H360     1.0000 0.96640  0.75080  0.21690  Biso   1.000  H
  C445     1.0000 0.89600  0.75628  0.14023  Biso   1.000  C
  H361     1.0000 0.91880  0.78270  0.14020  Biso   1.000  H
  H362     1.0000 0.87270  0.75750  0.13590  Biso   1.000  H
  H363     1.0000 0.90020  0.73980  0.12980  Biso   1.000  H
  C446     1.0000 0.80564  0.68936  0.20515  Biso   1.000  C
  H364     1.0000 0.78970  0.69760  0.19680  Biso   1.000  H
  H365     1.0000 0.80790  0.69810  0.22050  Biso   1.000  H
  H366     1.0000 0.79310  0.66070  0.20480  Biso   1.000  H
  C447     1.0000 0.81671  0.71258  0.15938  Biso   1.000  C
  H367     1.0000 0.82170  0.71100  0.14350  Biso   1.000  H
  H368     1.0000 0.79360  0.68750  0.16390  Biso   1.000  H
  C448     1.0000 0.77588  0.74179  0.15271  Biso   1.000  C
  C449     1.0000 0.75099  0.70958  0.13916  Biso   1.000  C
  H369     1.0000 0.75710  0.68950  0.13630  Biso   1.000  H
  C450     1.0000 0.71782  0.70741  0.13002  Biso   1.000  C
  H370     1.0000 0.70030  0.68500  0.12170  Biso   1.000  H
  C451     1.0000 0.70970  0.73814  0.13298  Biso   1.000  C
  H371     1.0000 0.68780  0.73740  0.12600  Biso   1.000  H
  C452     1.0000 0.73553  0.77086  0.14680  Biso   1.000  C
  C453     1.0000 0.76832  0.77199  0.15633  Biso   1.000  C
  H372     1.0000 0.78550  0.79360  0.16530  Biso   1.000  H
  C454     1.0000 0.72639  0.80363  0.15064  Biso   1.000  C
  C455     1.0000 0.87223  0.69635  0.23112  Biso   1.000  C
  H373     1.0000 0.89740  0.71030  0.23910  Biso   1.000  H
  H374     1.0000 0.85330  0.70210  0.23860  Biso   1.000  H
  C456     1.0000 0.84581  0.63592  0.25136  Biso   1.000  C
  C457     1.0000 0.83059  0.59406  0.25062  Biso   1.000  C
  H375     1.0000 0.83010  0.58180  0.23700  Biso   1.000  H
  C458     1.0000 0.81679  0.57192  0.26944  Biso   1.000  C
  H376     1.0000 0.80620  0.54440  0.26870  Biso   1.000  H
  C459     1.0000 0.81832  0.59011  0.29011  Biso   1.000  C
  H377     1.0000 0.81040  0.57500  0.30320  Biso   1.000  H
  C460     1.0000 0.83179  0.63087  0.29090  Biso   1.000  C
  C461     1.0000 0.84588  0.65257  0.27146  Biso   1.000  C
  H378     1.0000 0.85590  0.68000  0.27210  Biso   1.000  H
  C462     1.0000 0.83366  0.65094  0.31230  Biso   1.000  C
  O118     1.0000 0.12533  0.78921  0.11950  Biso   1.000  O
  O119     1.0000 0.10815  0.81847  0.14372  Biso   1.000  O
  O120     1.0000 0.95764  0.72506  0.14956  Biso   1.000  O
  O121     1.0000 0.85800  0.65529  0.23177  Biso   1.000  O
  O122     1.0000 0.84639  0.68775  0.31133  Biso   1.000  O
  O123     1.0000 0.82282  0.63068  0.32971  Biso   1.000  O
  O124     1.0000 0.80919  0.74536  0.16326  Biso   1.000  O
  O125     1.0000 0.75126  0.83513  0.15894  Biso   1.000  O
  O126     1.0000 0.69275  0.79679  0.14328  Biso   1.000  O
  Co27     1.0000 0.65791  0.82249  0.13901  Biso   1.000  Co
  Co28     1.0000 0.74518  0.88510  0.17140  Biso   1.000  Co
  C463     1.0000 0.45829  0.43117  0.70349  Biso   1.000  C
  C464     1.0000 0.42821  0.39018  0.70705  Biso   1.000  C
  C465     1.0000 0.39644  0.38141  0.72142  Biso   1.000  C
  H379     1.0000 0.39687  0.40153  0.73023  Biso   1.000  H
  C466     1.0000 0.36414  0.34273  0.72258  Biso   1.000  C
  H380     1.0000 0.34287  0.33683  0.73223  Biso   1.000  H
  C467     1.0000 0.36361  0.31274  0.70928  Biso   1.000  C
  H381     1.0000 0.34197  0.28683  0.71003  Biso   1.000  H
  C468     1.0000 0.39526  0.32153  0.69495  Biso   1.000  C
  C469     1.0000 0.42760  0.36012  0.69379  Biso   1.000  C
  H382     1.0000 0.44887  0.36593  0.68423  Biso   1.000  H
  C470     1.0000 0.42226  0.29544  0.66850  Biso   1.000  C
  H383     1.0000 0.44707  0.30343  0.67653  Biso   1.000  H
  H384     1.0000 0.42707  0.31553  0.65723  Biso   1.000  H
  C471     1.0000 0.40659  0.25414  0.65737  Biso   1.000  C
  C472     1.0000 0.40523  0.22325  0.66977  Biso   1.000  C
  C473     1.0000 0.38672  0.18602  0.66029  Biso   1.000  C
  C474     1.0000 0.37405  0.17954  0.63841  Biso   1.000  C
  C475     1.0000 0.37754  0.21139  0.62604  Biso   1.000  C
  C476     1.0000 0.39256  0.24988  0.63598  Biso   1.000  C
  C477     1.0000 0.39177  0.28286  0.62314  Biso   1.000  C
  H385     1.0000 0.38547  0.29843  0.63323  Biso   1.000  H
  H386     1.0000 0.37187  0.27163  0.61153  Biso   1.000  H
  H387     1.0000 0.41747  0.29973  0.61643  Biso   1.000  H
  C478     1.0000 0.42295  0.22933  0.69310  Biso   1.000  C
  H388     1.0000 0.44937  0.25213  0.69313  Biso   1.000  H
  H389     1.0000 0.42417  0.20603  0.69743  Biso   1.000  H
  H390     1.0000 0.40647  0.23353  0.70353  Biso   1.000  H
  C479     1.0000 0.35603  0.13897  0.62818  Biso   1.000  C
  H391     1.0000 0.36427  0.12303  0.63653  Biso   1.000  H
  H392     1.0000 0.36477  0.14123  0.61283  Biso   1.000  H
  H393     1.0000 0.32737  0.12643  0.62853  Biso   1.000  H
  C480     1.0000 0.37925  0.15004  0.67395  Biso   1.000  C
  H394     1.0000 0.37767  0.15503  0.68983  Biso   1.000  H
  H395     1.0000 0.35417  0.12693  0.66943  Biso   1.000  H
  C481     1.0000 0.40846  0.10921  0.68062  Biso   1.000  C
  C482     1.0000 0.37625  0.08432  0.69417  Biso   1.000  C
  H396     1.0000 0.35617  0.09043  0.69703  Biso   1.000  H
  C483     1.0000 0.37408  0.05115  0.70331  Biso   1.000  C
  H397     1.0000 0.35167  0.03363  0.71163  Biso   1.000  H
  C484     1.0000 0.40481  0.04303  0.70035  Biso   1.000  C
  H398     1.0000 0.40407  0.02113  0.70733  Biso   1.000  H
  C485     1.0000 0.43753  0.06886  0.68653  Biso   1.000  C
  C486     1.0000 0.43866  0.10165  0.67700  Biso   1.000  C
  H399     1.0000 0.46027  0.11883  0.66803  Biso   1.000  H
  C487     1.0000 0.47030  0.05972  0.68269  Biso   1.000  C
  C488     1.0000 0.36302  0.20556  0.60221  Biso   1.000  C
  H400     1.0000 0.37697  0.23073  0.59423  Biso   1.000  H
  H401     1.0000 0.36877  0.18663  0.59473  Biso   1.000  H
  C489     1.0000 0.30259  0.17914  0.58197  Biso   1.000  C
  C490     1.0000 0.26073  0.16392  0.58271  Biso   1.000  C
  H402     1.0000 0.24847  0.16343  0.59633  Biso   1.000  H
  C491     1.0000 0.23859  0.15012  0.56389  Biso   1.000  C
  H403     1.0000 0.21107  0.13953  0.56463  Biso   1.000  H
  C492     1.0000 0.25678  0.15165  0.54322  Biso   1.000  C
  H404     1.0000 0.24167  0.14373  0.53013  Biso   1.000  H
  C493     1.0000 0.29754  0.16512  0.54243  Biso   1.000  C
  C494     1.0000 0.31924  0.17921  0.56187  Biso   1.000  C
  H405     1.0000 0.34667  0.18923  0.56123  Biso   1.000  H
  C495     1.0000 0.31761  0.16699  0.52103  Biso   1.000  C
  O127     1.0000 0.45588  0.45866  0.71383  Biso   1.000  O
  O128     1.0000 0.48514  0.44148  0.68961  Biso   1.000  O
  O129     1.0000 0.39173  0.29097  0.68377  Biso   1.000  O
  O130     1.0000 0.32196  0.19133  0.60156  Biso   1.000  O
  O131     1.0000 0.35442  0.17972  0.52200  Biso   1.000  O
  O132     1.0000 0.29735  0.15615  0.50362  Biso   1.000  O
  O133     1.0000 0.41203  0.14252  0.67007  Biso   1.000  O
  O134     1.0000 0.50180  0.08459  0.67439  Biso   1.000  O
  O135     1.0000 0.46346  0.02608  0.69005  Biso   1.000  O
  Co29     1.0000 0.48916  0.99124  0.69432  Biso   1.000  Co
  Co30     1.0000 0.55176  0.07852  0.66193  Biso   1.000  Co
  C496     1.0000 0.76451  0.12495  0.46317  Biso   1.000  C
  C497     1.0000 0.72352  0.09487  0.45961  Biso   1.000  C
  C498     1.0000 0.71475  0.06310  0.44524  Biso   1.000  C
  H406     1.0000 0.73487  0.06353  0.43643  Biso   1.000  H
  C499     1.0000 0.67607  0.03080  0.44408  Biso   1.000  C
  H407     1.0000 0.67017  0.00953  0.43443  Biso   1.000  H
  C500     1.0000 0.64608  0.03027  0.45738  Biso   1.000  C
  H408     1.0000 0.62017  0.00863  0.45663  Biso   1.000  H
  C501     1.0000 0.65487  0.06192  0.47171  Biso   1.000  C
  C502     1.0000 0.69346  0.09426  0.47287  Biso   1.000  C
  H409     1.0000 0.69927  0.11553  0.48243  Biso   1.000  H
  C503     1.0000 0.62878  0.08892  0.49816  Biso   1.000  C
  H410     1.0000 0.63677  0.11373  0.49013  Biso   1.000  H
  H411     1.0000 0.64887  0.09373  0.50943  Biso   1.000  H
  C504     1.0000 0.58748  0.07325  0.50929  Biso   1.000  C
  C505     1.0000 0.55659  0.07189  0.49689  Biso   1.000  C
  C506     1.0000 0.51936  0.05338  0.50637  Biso   1.000  C
  C507     1.0000 0.51288  0.04071  0.52825  Biso   1.000  C
  C508     1.0000 0.54473  0.04420  0.54062  Biso   1.000  C
  C509     1.0000 0.58322  0.05922  0.53068  Biso   1.000  C
  C510     1.0000 0.61620  0.05843  0.54352  Biso   1.000  C
  H412     1.0000 0.63177  0.05213  0.53343  Biso   1.000  H
  H413     1.0000 0.60497  0.03853  0.55513  Biso   1.000  H
  H414     1.0000 0.63307  0.08413  0.55023  Biso   1.000  H
  C511     1.0000 0.56267  0.08961  0.47356  Biso   1.000  C
  H415     1.0000 0.58547  0.11603  0.47353  Biso   1.000  H
  H416     1.0000 0.53937  0.09083  0.46923  Biso   1.000  H
  H417     1.0000 0.56687  0.07313  0.46313  Biso   1.000  H
  C512     1.0000 0.47231  0.02269  0.53848  Biso   1.000  C
  H418     1.0000 0.45637  0.03093  0.53013  Biso   1.000  H
  H419     1.0000 0.47457  0.03143  0.55383  Biso   1.000  H
  H420     1.0000 0.45977  0.99403  0.53813  Biso   1.000  H
  C513     1.0000 0.48338  0.04591  0.49271  Biso   1.000  C
  H421     1.0000 0.48837  0.04433  0.47683  Biso   1.000  H
  H422     1.0000 0.46027  0.02083  0.49723  Biso   1.000  H
  C514     1.0000 0.44255  0.07512  0.48604  Biso   1.000  C
  C515     1.0000 0.41766  0.04291  0.47249  Biso   1.000  C
  H423     1.0000 0.42377  0.02283  0.46963  Biso   1.000  H
  C516     1.0000 0.38449  0.04074  0.46335  Biso   1.000  C
  H424     1.0000 0.36697  0.01833  0.45503  Biso   1.000  H
  C517     1.0000 0.37637  0.07147  0.46631  Biso   1.000  C
  H425     1.0000 0.35447  0.07073  0.45933  Biso   1.000  H
  C518     1.0000 0.40220  0.10419  0.48013  Biso   1.000  C
  C519     1.0000 0.43499  0.10532  0.48966  Biso   1.000  C
  H426     1.0000 0.45217  0.12693  0.49863  Biso   1.000  H
  C520     1.0000 0.39306  0.13696  0.48397  Biso   1.000  C
  C521     1.0000 0.53890  0.02968  0.56445  Biso   1.000  C
  H427     1.0000 0.56407  0.04363  0.57243  Biso   1.000  H
  H428     1.0000 0.51997  0.03543  0.57193  Biso   1.000  H
  C522     1.0000 0.51248  0.96925  0.58469  Biso   1.000  C
  C523     1.0000 0.49726  0.92739  0.58395  Biso   1.000  C
  H429     1.0000 0.49677  0.91513  0.57033  Biso   1.000  H
  C524     1.0000 0.48346  0.90525  0.60277  Biso   1.000  C
  H430     1.0000 0.47287  0.87773  0.60203  Biso   1.000  H
  C525     1.0000 0.48499  0.92344  0.62344  Biso   1.000  C
  H431     1.0000 0.47707  0.90833  0.63653  Biso   1.000  H
  C526     1.0000 0.49846  0.96420  0.62423  Biso   1.000  C
  C527     1.0000 0.51255  0.98590  0.60479  Biso   1.000  C
  H432     1.0000 0.52257  0.01333  0.60543  Biso   1.000  H
  C528     1.0000 0.50033  0.98427  0.64563  Biso   1.000  C
  O136     1.0000 0.79200  0.12254  0.45283  Biso   1.000  O
  O137     1.0000 0.77482  0.15180  0.47705  Biso   1.000  O
  O138     1.0000 0.62431  0.05839  0.48289  Biso   1.000  O
  O139     1.0000 0.52467  0.98862  0.56510  Biso   1.000  O
  O140     1.0000 0.51306  0.02108  0.64466  Biso   1.000  O
  O141     1.0000 0.48949  0.96401  0.66304  Biso   1.000  O
  O142     1.0000 0.47586  0.07869  0.49659  Biso   1.000  O
  O143     1.0000 0.41793  0.16846  0.49227  Biso   1.000  O
  O144     1.0000 0.35942  0.13012  0.47661  Biso   1.000  O
  Co31     1.0000 0.32457  0.15582  0.47235  Biso   1.000  Co
  Co32     1.0000 0.41185  0.21843  0.50474  Biso   1.000  Co
  C529     1.0000 0.12495  0.76451  0.03683  Biso   1.000  C
  C530     1.0000 0.09487  0.72352  0.04039  Biso   1.000  C
  C531     1.0000 0.06310  0.71475  0.05476  Biso   1.000  C
  H433     1.0000 0.06353  0.73487  0.06357  Biso   1.000  H
  C532     1.0000 0.03080  0.67607  0.05592  Biso   1.000  C
  H434     1.0000 0.00953  0.67017  0.06557  Biso   1.000  H
  C533     1.0000 0.03027  0.64608  0.04262  Biso   1.000  C
  H435     1.0000 0.00863  0.62017  0.04337  Biso   1.000  H
  C534     1.0000 0.06192  0.65487  0.02829  Biso   1.000  C
  C535     1.0000 0.09426  0.69346  0.02713  Biso   1.000  C
  H436     1.0000 0.11553  0.69927  0.01757  Biso   1.000  H
  C536     1.0000 0.08892  0.62878  0.00184  Biso   1.000  C
  H437     1.0000 0.11373  0.63677  0.00987  Biso   1.000  H
  H438     1.0000 0.09373  0.64887  0.99057  Biso   1.000  H
  C537     1.0000 0.07325  0.58748  0.99071  Biso   1.000  C
  C538     1.0000 0.07189  0.55659  0.00311  Biso   1.000  C
  C539     1.0000 0.05338  0.51936  0.99363  Biso   1.000  C
  C540     1.0000 0.04071  0.51288  0.97175  Biso   1.000  C
  C541     1.0000 0.04420  0.54473  0.95938  Biso   1.000  C
  C542     1.0000 0.05922  0.58322  0.96932  Biso   1.000  C
  C543     1.0000 0.05843  0.61620  0.95648  Biso   1.000  C
  H439     1.0000 0.05213  0.63177  0.96657  Biso   1.000  H
  H440     1.0000 0.03853  0.60497  0.94487  Biso   1.000  H
  H441     1.0000 0.08413  0.63307  0.94977  Biso   1.000  H
  C544     1.0000 0.08961  0.56267  0.02644  Biso   1.000  C
  H442     1.0000 0.11603  0.58547  0.02647  Biso   1.000  H
  H443     1.0000 0.09083  0.53937  0.03077  Biso   1.000  H
  H444     1.0000 0.07313  0.56687  0.03687  Biso   1.000  H
  C545     1.0000 0.02269  0.47231  0.96152  Biso   1.000  C
  H445     1.0000 0.03093  0.45637  0.96987  Biso   1.000  H
  H446     1.0000 0.03143  0.47457  0.94617  Biso   1.000  H
  H447     1.0000 0.99403  0.45977  0.96187  Biso   1.000  H
  C546     1.0000 0.04591  0.48338  0.00729  Biso   1.000  C
  H448     1.0000 0.04433  0.48837  0.02317  Biso   1.000  H
  H449     1.0000 0.02083  0.46027  0.00277  Biso   1.000  H
  C547     1.0000 0.07512  0.44255  0.01396  Biso   1.000  C
  C548     1.0000 0.04291  0.41766  0.02751  Biso   1.000  C
  H450     1.0000 0.02283  0.42377  0.03037  Biso   1.000  H
  C549     1.0000 0.04074  0.38449  0.03665  Biso   1.000  C
  H451     1.0000 0.01833  0.36697  0.04497  Biso   1.000  H
  C550     1.0000 0.07147  0.37637  0.03369  Biso   1.000  C
  H452     1.0000 0.07073  0.35447  0.04067  Biso   1.000  H
  C551     1.0000 0.10419  0.40220  0.01987  Biso   1.000  C
  C552     1.0000 0.10532  0.43499  0.01034  Biso   1.000  C
  H453     1.0000 0.12693  0.45217  0.00137  Biso   1.000  H
  C553     1.0000 0.13696  0.39306  0.01603  Biso   1.000  C
  C554     1.0000 0.02968  0.53890  0.93555  Biso   1.000  C
  H454     1.0000 0.04363  0.56407  0.92757  Biso   1.000  H
  H455     1.0000 0.03543  0.51997  0.92807  Biso   1.000  H
  C555     1.0000 0.96925  0.51248  0.91531  Biso   1.000  C
  C556     1.0000 0.92739  0.49726  0.91605  Biso   1.000  C
  H456     1.0000 0.91513  0.49677  0.92967  Biso   1.000  H
  C557     1.0000 0.90525  0.48346  0.89723  Biso   1.000  C
  H457     1.0000 0.87773  0.47287  0.89797  Biso   1.000  H
  C558     1.0000 0.92344  0.48499  0.87656  Biso   1.000  C
  H458     1.0000 0.90833  0.47707  0.86347  Biso   1.000  H
  C559     1.0000 0.96420  0.49846  0.87577  Biso   1.000  C
  C560     1.0000 0.98590  0.51255  0.89521  Biso   1.000  C
  H459     1.0000 0.01333  0.52257  0.89457  Biso   1.000  H
  C561     1.0000 0.98427  0.50033  0.85437  Biso   1.000  C
  O145     1.0000 0.12254  0.79200  0.04717  Biso   1.000  O
  O146     1.0000 0.15180  0.77482  0.02295  Biso   1.000  O
  O147     1.0000 0.05839  0.62431  0.01711  Biso   1.000  O
  O148     1.0000 0.98862  0.52467  0.93490  Biso   1.000  O
  O149     1.0000 0.02108  0.51306  0.85534  Biso   1.000  O
  O150     1.0000 0.96401  0.48949  0.83696  Biso   1.000  O
  O151     1.0000 0.07869  0.47586  0.00341  Biso   1.000  O
  O152     1.0000 0.16846  0.41793  0.00773  Biso   1.000  O
  O153     1.0000 0.13012  0.35942  0.02339  Biso   1.000  O
  Co33     1.0000 0.15582  0.32457  0.02765  Biso   1.000  Co
  Co34     1.0000 0.21843  0.41185  0.99526  Biso   1.000  Co
  C562     1.0000 0.43117  0.45829  0.79651  Biso   1.000  C
  C563     1.0000 0.39018  0.42821  0.79295  Biso   1.000  C
  C564     1.0000 0.38141  0.39644  0.77858  Biso   1.000  C
  H460     1.0000 0.40153  0.39687  0.76977  Biso   1.000  H
  C565     1.0000 0.34273  0.36414  0.77742  Biso   1.000  C
  H461     1.0000 0.33683  0.34287  0.76777  Biso   1.000  H
  C566     1.0000 0.31274  0.36361  0.79072  Biso   1.000  C
  H462     1.0000 0.28683  0.34197  0.78997  Biso   1.000  H
  C567     1.0000 0.32153  0.39526  0.80505  Biso   1.000  C
  C568     1.0000 0.36012  0.42760  0.80621  Biso   1.000  C
  H463     1.0000 0.36593  0.44887  0.81577  Biso   1.000  H
  C569     1.0000 0.29544  0.42226  0.83150  Biso   1.000  C
  H464     1.0000 0.30343  0.44707  0.82347  Biso   1.000  H
  H465     1.0000 0.31553  0.42707  0.84277  Biso   1.000  H
  C570     1.0000 0.25414  0.40659  0.84263  Biso   1.000  C
  C571     1.0000 0.22325  0.40523  0.83023  Biso   1.000  C
  C572     1.0000 0.18602  0.38672  0.83971  Biso   1.000  C
  C573     1.0000 0.17954  0.37405  0.86159  Biso   1.000  C
  C574     1.0000 0.21139  0.37754  0.87396  Biso   1.000  C
  C575     1.0000 0.24988  0.39256  0.86402  Biso   1.000  C
  C576     1.0000 0.28286  0.39177  0.87686  Biso   1.000  C
  H466     1.0000 0.29843  0.38547  0.86677  Biso   1.000  H
  H467     1.0000 0.27163  0.37187  0.88847  Biso   1.000  H
  H468     1.0000 0.29973  0.41747  0.88357  Biso   1.000  H
  C577     1.0000 0.22933  0.42295  0.80690  Biso   1.000  C
  H469     1.0000 0.25213  0.44937  0.80687  Biso   1.000  H
  H470     1.0000 0.20603  0.42417  0.80257  Biso   1.000  H
  H471     1.0000 0.23353  0.40647  0.79647  Biso   1.000  H
  C578     1.0000 0.13897  0.35603  0.87182  Biso   1.000  C
  H472     1.0000 0.12303  0.36427  0.86347  Biso   1.000  H
  H473     1.0000 0.14123  0.36477  0.88717  Biso   1.000  H
  H474     1.0000 0.12643  0.32737  0.87147  Biso   1.000  H
  C579     1.0000 0.15004  0.37925  0.82605  Biso   1.000  C
  H475     1.0000 0.15503  0.37767  0.81017  Biso   1.000  H
  H476     1.0000 0.12693  0.35417  0.83057  Biso   1.000  H
  C580     1.0000 0.10921  0.40846  0.81938  Biso   1.000  C
  C581     1.0000 0.08432  0.37625  0.80583  Biso   1.000  C
  H477     1.0000 0.09043  0.35617  0.80297  Biso   1.000  H
  C582     1.0000 0.05115  0.37408  0.79669  Biso   1.000  C
  H478     1.0000 0.03363  0.35167  0.78837  Biso   1.000  H
  C583     1.0000 0.04303  0.40481  0.79965  Biso   1.000  C
  H479     1.0000 0.02113  0.40407  0.79267  Biso   1.000  H
  C584     1.0000 0.06886  0.43753  0.81347  Biso   1.000  C
  C585     1.0000 0.10165  0.43866  0.82300  Biso   1.000  C
  H480     1.0000 0.11883  0.46027  0.83197  Biso   1.000  H
  C586     1.0000 0.05972  0.47030  0.81731  Biso   1.000  C
  C587     1.0000 0.20556  0.36302  0.89779  Biso   1.000  C
  H481     1.0000 0.23073  0.37697  0.90577  Biso   1.000  H
  H482     1.0000 0.18663  0.36877  0.90527  Biso   1.000  H
  C588     1.0000 0.17914  0.30259  0.91803  Biso   1.000  C
  C589     1.0000 0.16392  0.26073  0.91729  Biso   1.000  C
  H483     1.0000 0.16343  0.24847  0.90367  Biso   1.000  H
  C590     1.0000 0.15012  0.23859  0.93611  Biso   1.000  C
  H484     1.0000 0.13953  0.21107  0.93537  Biso   1.000  H
  C591     1.0000 0.15165  0.25678  0.95678  Biso   1.000  C
  H485     1.0000 0.14373  0.24167  0.96987  Biso   1.000  H
  C592     1.0000 0.16512  0.29754  0.95757  Biso   1.000  C
  C593     1.0000 0.17921  0.31924  0.93813  Biso   1.000  C
  H486     1.0000 0.18923  0.34667  0.93877  Biso   1.000  H
  C594     1.0000 0.16699  0.31761  0.97897  Biso   1.000  C
  O154     1.0000 0.45866  0.45588  0.78617  Biso   1.000  O
  O155     1.0000 0.44148  0.48514  0.81039  Biso   1.000  O
  O156     1.0000 0.29097  0.39173  0.81623  Biso   1.000  O
  O157     1.0000 0.19133  0.32196  0.89844  Biso   1.000  O
  O158     1.0000 0.17972  0.35442  0.97800  Biso   1.000  O
  O159     1.0000 0.15615  0.29735  0.99638  Biso   1.000  O
  O160     1.0000 0.14252  0.41203  0.82993  Biso   1.000  O
  O161     1.0000 0.08459  0.50180  0.82561  Biso   1.000  O
  O162     1.0000 0.02608  0.46346  0.80995  Biso   1.000  O
  Co35     1.0000 0.99124  0.48916  0.80568  Biso   1.000  Co
  Co36     1.0000 0.07852  0.55176  0.83807  Biso   1.000  Co
  C595     1.0000 0.69378  0.79162  0.62984  Biso   1.000  C
  C596     1.0000 0.70469  0.76154  0.62628  Biso   1.000  C
  C597     1.0000 0.68169  0.72977  0.61191  Biso   1.000  C
  H487     1.0000 0.66200  0.73020  0.60310  Biso   1.000  H
  C598     1.0000 0.68807  0.69747  0.61075  Biso   1.000  C
  H488     1.0000 0.67270  0.67620  0.60110  Biso   1.000  H
  C599     1.0000 0.71753  0.69694  0.62405  Biso   1.000  C
  H489     1.0000 0.72180  0.67530  0.62330  Biso   1.000  H
  C600     1.0000 0.74039  0.72859  0.63838  Biso   1.000  C
  C601     1.0000 0.73414  0.76093  0.63954  Biso   1.000  C
  H490     1.0000 0.74960  0.78220  0.64910  Biso   1.000  H
  C602     1.0000 0.79348  0.75559  0.66483  Biso   1.000  C
  H491     1.0000 0.81030  0.78040  0.65680  Biso   1.000  H
  H492     1.0000 0.77820  0.76040  0.67610  Biso   1.000  H
  C603     1.0000 0.81911  0.73992  0.67596  Biso   1.000  C
  C604     1.0000 0.84864  0.73856  0.66356  Biso   1.000  C
  C605     1.0000 0.86736  0.72005  0.67304  Biso   1.000  C
  C606     1.0000 0.86117  0.70738  0.69492  Biso   1.000  C
  C607     1.0000 0.83281  0.71087  0.70729  Biso   1.000  C
  C608     1.0000 0.80934  0.72589  0.69735  Biso   1.000  C
  C609     1.0000 0.77557  0.72510  0.71019  Biso   1.000  C
  H493     1.0000 0.75370  0.71880  0.70010  Biso   1.000  H
  H494     1.0000 0.76690  0.70520  0.72180  Biso   1.000  H
  H495     1.0000 0.78440  0.75080  0.71690  Biso   1.000  H
  C610     1.0000 0.86028  0.75628  0.64023  Biso   1.000  C
  H496     1.0000 0.86390  0.78270  0.64020  Biso   1.000  H
  H497     1.0000 0.88480  0.75750  0.63590  Biso   1.000  H
  H498     1.0000 0.83960  0.73980  0.62980  Biso   1.000  H
  C611     1.0000 0.88372  0.68936  0.70515  Biso   1.000  C
  H499     1.0000 0.90790  0.69760  0.69680  Biso   1.000  H
  H500     1.0000 0.89020  0.69810  0.72050  Biso   1.000  H
  H501     1.0000 0.86760  0.66070  0.70480  Biso   1.000  H
  C612     1.0000 0.89587  0.71258  0.65938  Biso   1.000  C
  H502     1.0000 0.88930  0.71100  0.64350  Biso   1.000  H
  H503     1.0000 0.89390  0.68750  0.66390  Biso   1.000  H
  C613     1.0000 0.96591  0.74179  0.65271  Biso   1.000  C
  C614     1.0000 0.95859  0.70958  0.63916  Biso   1.000  C
  H504     1.0000 0.93240  0.68950  0.63630  Biso   1.000  H
  C615     1.0000 0.98959  0.70741  0.63002  Biso   1.000  C
  H505     1.0000 0.98470  0.68500  0.62170  Biso   1.000  H
  C616     1.0000 0.02844  0.73814  0.63298  Biso   1.000  C
  H506     1.0000 0.04960  0.73740  0.62600  Biso   1.000  H
  C617     1.0000 0.03533  0.77086  0.64680  Biso   1.000  C
  C618     1.0000 0.00367  0.77199  0.65633  Biso   1.000  C
  H507     1.0000 0.00810  0.79360  0.66530  Biso   1.000  H
  C619     1.0000 0.07724  0.80363  0.65064  Biso   1.000  C
  C620     1.0000 0.82412  0.69635  0.73112  Biso   1.000  C
  H508     1.0000 0.81290  0.71030  0.73910  Biso   1.000  H
  H509     1.0000 0.84880  0.70210  0.73860  Biso   1.000  H
  C621     1.0000 0.79011  0.63592  0.75136  Biso   1.000  C
  C622     1.0000 0.76347  0.59406  0.75062  Biso   1.000  C
  H510     1.0000 0.75170  0.58180  0.73700  Biso   1.000  H
  C623     1.0000 0.75513  0.57192  0.76944  Biso   1.000  C
  H511     1.0000 0.73820  0.54440  0.76870  Biso   1.000  H
  C624     1.0000 0.77179  0.59011  0.79011  Biso   1.000  C
  H512     1.0000 0.76460  0.57500  0.80320  Biso   1.000  H
  C625     1.0000 0.79908  0.63087  0.79090  Biso   1.000  C
  C626     1.0000 0.80669  0.65257  0.77146  Biso   1.000  C
  H513     1.0000 0.82410  0.68000  0.77210  Biso   1.000  H
  C627     1.0000 0.81728  0.65094  0.81230  Biso   1.000  C
  O163     1.0000 0.66388  0.78921  0.61950  Biso   1.000  O
  O164     1.0000 0.71032  0.81847  0.64372  Biso   1.000  O
  O165     1.0000 0.76742  0.72506  0.64956  Biso   1.000  O
  O166     1.0000 0.79729  0.65529  0.73177  Biso   1.000  O
  O167     1.0000 0.84136  0.68775  0.81133  Biso   1.000  O
  O168     1.0000 0.80786  0.63068  0.82971  Biso   1.000  O
  O169     1.0000 0.93617  0.74536  0.66326  Biso   1.000  O
  O170     1.0000 0.08387  0.83513  0.65894  Biso   1.000  O
  O171     1.0000 0.10404  0.79679  0.64328  Biso   1.000  O
  Co37     1.0000 0.16458  0.82249  0.63901  Biso   1.000  Co
  Co38     1.0000 0.13991  0.88510  0.67140  Biso   1.000  Co
  Co39     1.0000 0.83542  0.65791  0.86099  Biso   1.000  Co
  Co40     1.0000 0.86009  0.74518  0.82860  Biso   1.000  Co
  C628     1.0000 0.30622  0.09784  0.87016  Biso   1.000  C
  C629     1.0000 0.29531  0.05685  0.87372  Biso   1.000  C
  C630     1.0000 0.31831  0.04808  0.88809  Biso   1.000  C
  H514     1.0000 0.33800  0.06820  0.89690  Biso   1.000  H
  C631     1.0000 0.31193  0.00940  0.88925  Biso   1.000  C
  H515     1.0000 0.32730  0.00350  0.89890  Biso   1.000  H
  C632     1.0000 0.28247  0.97941  0.87595  Biso   1.000  C
  H516     1.0000 0.27820  0.95350  0.87670  Biso   1.000  H
  C633     1.0000 0.25961  0.98820  0.86162  Biso   1.000  C
  C634     1.0000 0.26586  0.02679  0.86046  Biso   1.000  C
  H517     1.0000 0.25040  0.03260  0.85090  Biso   1.000  H
  C635     1.0000 0.20652  0.96211  0.83517  Biso   1.000  C
  H518     1.0000 0.18970  0.97010  0.84320  Biso   1.000  H
  H519     1.0000 0.22180  0.98220  0.82390  Biso   1.000  H
  C636     1.0000 0.18089  0.92081  0.82404  Biso   1.000  C
  C637     1.0000 0.15136  0.88992  0.83644  Biso   1.000  C
  C638     1.0000 0.13264  0.85269  0.82696  Biso   1.000  C
  C639     1.0000 0.13883  0.84621  0.80508  Biso   1.000  C
  C640     1.0000 0.16719  0.87806  0.79271  Biso   1.000  C
  C641     1.0000 0.19066  0.91655  0.80265  Biso   1.000  C
  C642     1.0000 0.22443  0.94953  0.78981  Biso   1.000  C
  H520     1.0000 0.24630  0.96510  0.79990  Biso   1.000  H
  H521     1.0000 0.23310  0.93830  0.77820  Biso   1.000  H
  H522     1.0000 0.21560  0.96640  0.78310  Biso   1.000  H
  C643     1.0000 0.13972  0.89600  0.85977  Biso   1.000  C
  H523     1.0000 0.13610  0.91880  0.85980  Biso   1.000  H
  H524     1.0000 0.11520  0.87270  0.86410  Biso   1.000  H
  H525     1.0000 0.16040  0.90020  0.87020  Biso   1.000  H
  C644     1.0000 0.11628  0.80564  0.79485  Biso   1.000  C
  H526     1.0000 0.09210  0.78970  0.80320  Biso   1.000  H
  H527     1.0000 0.10980  0.80790  0.77950  Biso   1.000  H
  H528     1.0000 0.13240  0.79310  0.79520  Biso   1.000  H
  C645     1.0000 0.10413  0.81671  0.84062  Biso   1.000  C
  H529     1.0000 0.11070  0.82170  0.85650  Biso   1.000  H
  H530     1.0000 0.10610  0.79360  0.83610  Biso   1.000  H
  C646     1.0000 0.03409  0.77588  0.84729  Biso   1.000  C
  C647     1.0000 0.04141  0.75099  0.86084  Biso   1.000  C
  H531     1.0000 0.06760  0.75710  0.86370  Biso   1.000  H
  C648     1.0000 0.01041  0.71782  0.86998  Biso   1.000  C
  H532     1.0000 0.01530  0.70030  0.87830  Biso   1.000  H
  C649     1.0000 0.97156  0.70970  0.86702  Biso   1.000  C
  H533     1.0000 0.95040  0.68780  0.87400  Biso   1.000  H
  C650     1.0000 0.96467  0.73553  0.85320  Biso   1.000  C
  C651     1.0000 0.99633  0.76832  0.84367  Biso   1.000  C
  H534     1.0000 0.99190  0.78550  0.83470  Biso   1.000  H
  C652     1.0000 0.92276  0.72639  0.84936  Biso   1.000  C
  C653     1.0000 0.17588  0.87223  0.76888  Biso   1.000  C
  H535     1.0000 0.18710  0.89740  0.76090  Biso   1.000  H
  H536     1.0000 0.15120  0.85330  0.76140  Biso   1.000  H
  C654     1.0000 0.20989  0.84581  0.74864  Biso   1.000  C
  C655     1.0000 0.23653  0.83059  0.74938  Biso   1.000  C
  H537     1.0000 0.24830  0.83010  0.76300  Biso   1.000  H
  C656     1.0000 0.24487  0.81679  0.73056  Biso   1.000  C
  H538     1.0000 0.26180  0.80620  0.73130  Biso   1.000  H
  C657     1.0000 0.22821  0.81832  0.70989  Biso   1.000  C
  H539     1.0000 0.23540  0.81040  0.69680  Biso   1.000  H
  C658     1.0000 0.20092  0.83179  0.70910  Biso   1.000  C
  C659     1.0000 0.19331  0.84588  0.72854  Biso   1.000  C
  H540     1.0000 0.17590  0.85590  0.72790  Biso   1.000  H
  C660     1.0000 0.18272  0.83366  0.68770  Biso   1.000  C
  O172     1.0000 0.33612  0.12533  0.88050  Biso   1.000  O
  O173     1.0000 0.28968  0.10815  0.85628  Biso   1.000  O
  O174     1.0000 0.23258  0.95764  0.85044  Biso   1.000  O
  O175     1.0000 0.20271  0.85800  0.76823  Biso   1.000  O
  O176     1.0000 0.15864  0.84639  0.68867  Biso   1.000  O
  O177     1.0000 0.19214  0.82282  0.67029  Biso   1.000  O
  O178     1.0000 0.06383  0.80919  0.83674  Biso   1.000  O
  O179     1.0000 0.91613  0.75126  0.84106  Biso   1.000  O
  O180     1.0000 0.89596  0.69275  0.85672  Biso   1.000  O
  Co41     1.0000 0.65791  0.83542  0.63901  Biso   1.000  Co
  Co42     1.0000 0.74518  0.86009  0.67140  Biso   1.000  Co
  C661     1.0000 0.09784  0.30622  0.62984  Biso   1.000  C
  C662     1.0000 0.05685  0.29531  0.62628  Biso   1.000  C
  C663     1.0000 0.04808  0.31831  0.61191  Biso   1.000  C
  H541     1.0000 0.06820  0.33800  0.60310  Biso   1.000  H
  C664     1.0000 0.00940  0.31193  0.61075  Biso   1.000  C
  H542     1.0000 0.00350  0.32730  0.60110  Biso   1.000  H
  C665     1.0000 0.97941  0.28247  0.62405  Biso   1.000  C
  H543     1.0000 0.95350  0.27820  0.62330  Biso   1.000  H
  C666     1.0000 0.98820  0.25961  0.63838  Biso   1.000  C
  C667     1.0000 0.02679  0.26586  0.63954  Biso   1.000  C
  H544     1.0000 0.03260  0.25040  0.64910  Biso   1.000  H
  C668     1.0000 0.96211  0.20652  0.66483  Biso   1.000  C
  H545     1.0000 0.97010  0.18970  0.65680  Biso   1.000  H
  H546     1.0000 0.98220  0.22180  0.67610  Biso   1.000  H
  C669     1.0000 0.92081  0.18089  0.67596  Biso   1.000  C
  C670     1.0000 0.88992  0.15136  0.66356  Biso   1.000  C
  C671     1.0000 0.85269  0.13264  0.67304  Biso   1.000  C
  C672     1.0000 0.84621  0.13883  0.69492  Biso   1.000  C
  C673     1.0000 0.87806  0.16719  0.70729  Biso   1.000  C
  C674     1.0000 0.91655  0.19066  0.69735  Biso   1.000  C
  C675     1.0000 0.94953  0.22443  0.71019  Biso   1.000  C
  H547     1.0000 0.96510  0.24630  0.70010  Biso   1.000  H
  H548     1.0000 0.93830  0.23310  0.72180  Biso   1.000  H
  H549     1.0000 0.96640  0.21560  0.71690  Biso   1.000  H
  C676     1.0000 0.89600  0.13972  0.64023  Biso   1.000  C
  H550     1.0000 0.91880  0.13610  0.64020  Biso   1.000  H
  H551     1.0000 0.87270  0.11520  0.63590  Biso   1.000  H
  H552     1.0000 0.90020  0.16040  0.62980  Biso   1.000  H
  C677     1.0000 0.80564  0.11628  0.70515  Biso   1.000  C
  H553     1.0000 0.78970  0.09210  0.69680  Biso   1.000  H
  H554     1.0000 0.80790  0.10980  0.72050  Biso   1.000  H
  H555     1.0000 0.79310  0.13240  0.70480  Biso   1.000  H
  C678     1.0000 0.81671  0.10413  0.65938  Biso   1.000  C
  H556     1.0000 0.82170  0.11070  0.64350  Biso   1.000  H
  H557     1.0000 0.79360  0.10610  0.66390  Biso   1.000  H
  C679     1.0000 0.77588  0.03409  0.65271  Biso   1.000  C
  C680     1.0000 0.75099  0.04141  0.63916  Biso   1.000  C
  H558     1.0000 0.75710  0.06760  0.63630  Biso   1.000  H
  C681     1.0000 0.71782  0.01041  0.63002  Biso   1.000  C
  H559     1.0000 0.70030  0.01530  0.62170  Biso   1.000  H
  C682     1.0000 0.70970  0.97156  0.63298  Biso   1.000  C
  H560     1.0000 0.68780  0.95040  0.62600  Biso   1.000  H
  C683     1.0000 0.73553  0.96467  0.64680  Biso   1.000  C
  C684     1.0000 0.76832  0.99633  0.65633  Biso   1.000  C
  H561     1.0000 0.78550  0.99190  0.66530  Biso   1.000  H
  C685     1.0000 0.72639  0.92276  0.65064  Biso   1.000  C
  C686     1.0000 0.87223  0.17588  0.73112  Biso   1.000  C
  H562     1.0000 0.89740  0.18710  0.73910  Biso   1.000  H
  H563     1.0000 0.85330  0.15120  0.73860  Biso   1.000  H
  C687     1.0000 0.84581  0.20989  0.75136  Biso   1.000  C
  C688     1.0000 0.83059  0.23653  0.75062  Biso   1.000  C
  H564     1.0000 0.83010  0.24830  0.73700  Biso   1.000  H
  C689     1.0000 0.81679  0.24487  0.76944  Biso   1.000  C
  H565     1.0000 0.80620  0.26180  0.76870  Biso   1.000  H
  C690     1.0000 0.81832  0.22821  0.79011  Biso   1.000  C
  H566     1.0000 0.81040  0.23540  0.80320  Biso   1.000  H
  C691     1.0000 0.83179  0.20092  0.79090  Biso   1.000  C
  C692     1.0000 0.84588  0.19331  0.77146  Biso   1.000  C
  H567     1.0000 0.85590  0.17590  0.77210  Biso   1.000  H
  C693     1.0000 0.83366  0.18272  0.81230  Biso   1.000  C
  O181     1.0000 0.12533  0.33612  0.61950  Biso   1.000  O
  O182     1.0000 0.10815  0.28968  0.64372  Biso   1.000  O
  O183     1.0000 0.95764  0.23258  0.64956  Biso   1.000  O
  O184     1.0000 0.85800  0.20271  0.73177  Biso   1.000  O
  O185     1.0000 0.84639  0.15864  0.81133  Biso   1.000  O
  O186     1.0000 0.82282  0.19214  0.82971  Biso   1.000  O
  O187     1.0000 0.80919  0.06383  0.66326  Biso   1.000  O
  O188     1.0000 0.75126  0.91613  0.65894  Biso   1.000  O
  O189     1.0000 0.69275  0.89596  0.64328  Biso   1.000  O
  C694     1.0000 0.79162  0.69378  0.87016  Biso   1.000  C
  C695     1.0000 0.76154  0.70469  0.87372  Biso   1.000  C
  C696     1.0000 0.72977  0.68169  0.88809  Biso   1.000  C
  H568     1.0000 0.73020  0.66200  0.89690  Biso   1.000  H
  C697     1.0000 0.69747  0.68807  0.88925  Biso   1.000  C
  H569     1.0000 0.67620  0.67270  0.89890  Biso   1.000  H
  C698     1.0000 0.69694  0.71753  0.87595  Biso   1.000  C
  H570     1.0000 0.67530  0.72180  0.87670  Biso   1.000  H
  C699     1.0000 0.72859  0.74039  0.86162  Biso   1.000  C
  C700     1.0000 0.76093  0.73414  0.86046  Biso   1.000  C
  H571     1.0000 0.78220  0.74960  0.85090  Biso   1.000  H
  C701     1.0000 0.75559  0.79348  0.83517  Biso   1.000  C
  H572     1.0000 0.78040  0.81030  0.84320  Biso   1.000  H
  H573     1.0000 0.76040  0.77820  0.82390  Biso   1.000  H
  C702     1.0000 0.73992  0.81911  0.82404  Biso   1.000  C
  C703     1.0000 0.73856  0.84864  0.83644  Biso   1.000  C
  C704     1.0000 0.72005  0.86736  0.82696  Biso   1.000  C
  C705     1.0000 0.70738  0.86117  0.80508  Biso   1.000  C
  C706     1.0000 0.71087  0.83281  0.79271  Biso   1.000  C
  C707     1.0000 0.72589  0.80934  0.80265  Biso   1.000  C
  C708     1.0000 0.72510  0.77557  0.78981  Biso   1.000  C
  H574     1.0000 0.71880  0.75370  0.79990  Biso   1.000  H
  H575     1.0000 0.70520  0.76690  0.77820  Biso   1.000  H
  H576     1.0000 0.75080  0.78440  0.78310  Biso   1.000  H
  C709     1.0000 0.75628  0.86028  0.85977  Biso   1.000  C
  H577     1.0000 0.78270  0.86390  0.85980  Biso   1.000  H
  H578     1.0000 0.75750  0.88480  0.86410  Biso   1.000  H
  H579     1.0000 0.73980  0.83960  0.87020  Biso   1.000  H
  C710     1.0000 0.68936  0.88372  0.79485  Biso   1.000  C
  H580     1.0000 0.69760  0.90790  0.80320  Biso   1.000  H
  H581     1.0000 0.69810  0.89020  0.77950  Biso   1.000  H
  H582     1.0000 0.66070  0.86760  0.79520  Biso   1.000  H
  C711     1.0000 0.71258  0.89587  0.84062  Biso   1.000  C
  H583     1.0000 0.71100  0.88930  0.85650  Biso   1.000  H
  H584     1.0000 0.68750  0.89390  0.83610  Biso   1.000  H
  C712     1.0000 0.74179  0.96591  0.84729  Biso   1.000  C
  C713     1.0000 0.70958  0.95859  0.86084  Biso   1.000  C
  H585     1.0000 0.68950  0.93240  0.86370  Biso   1.000  H
  C714     1.0000 0.70741  0.98959  0.86998  Biso   1.000  C
  H586     1.0000 0.68500  0.98470  0.87830  Biso   1.000  H
  C715     1.0000 0.73814  0.02844  0.86702  Biso   1.000  C
  H587     1.0000 0.73740  0.04960  0.87400  Biso   1.000  H
  C716     1.0000 0.77086  0.03533  0.85320  Biso   1.000  C
  C717     1.0000 0.77199  0.00367  0.84367  Biso   1.000  C
  H588     1.0000 0.79360  0.00810  0.83470  Biso   1.000  H
  C718     1.0000 0.80363  0.07724  0.84936  Biso   1.000  C
  C719     1.0000 0.69635  0.82412  0.76888  Biso   1.000  C
  H589     1.0000 0.71030  0.81290  0.76090  Biso   1.000  H
  H590     1.0000 0.70210  0.84880  0.76140  Biso   1.000  H
  C720     1.0000 0.63592  0.79011  0.74864  Biso   1.000  C
  C721     1.0000 0.59406  0.76347  0.74938  Biso   1.000  C
  H591     1.0000 0.58180  0.75170  0.76300  Biso   1.000  H
  C722     1.0000 0.57192  0.75513  0.73056  Biso   1.000  C
  H592     1.0000 0.54440  0.73820  0.73130  Biso   1.000  H
  C723     1.0000 0.59011  0.77179  0.70989  Biso   1.000  C
  H593     1.0000 0.57500  0.76460  0.69680  Biso   1.000  H
  C724     1.0000 0.63087  0.79908  0.70910  Biso   1.000  C
  C725     1.0000 0.65257  0.80669  0.72854  Biso   1.000  C
  H594     1.0000 0.68000  0.82410  0.72790  Biso   1.000  H
  C726     1.0000 0.65094  0.81728  0.68770  Biso   1.000  C
  O190     1.0000 0.78921  0.66388  0.88050  Biso   1.000  O
  O191     1.0000 0.81847  0.71032  0.85628  Biso   1.000  O
  O192     1.0000 0.72506  0.76742  0.85044  Biso   1.000  O
  O193     1.0000 0.65529  0.79729  0.76823  Biso   1.000  O
  O194     1.0000 0.68775  0.84136  0.68867  Biso   1.000  O
  O195     1.0000 0.63068  0.80786  0.67029  Biso   1.000  O
  O196     1.0000 0.74536  0.93617  0.83674  Biso   1.000  O
  O197     1.0000 0.83513  0.08387  0.84106  Biso   1.000  O
  O198     1.0000 0.79679  0.10404  0.85672  Biso   1.000  O
  Co43     1.0000 0.82249  0.16458  0.86099  Biso   1.000  Co
  Co44     1.0000 0.88510  0.13991  0.82860  Biso   1.000  Co
  C727     1.0000 0.36045  0.12495  0.96317  Biso   1.000  C
  C728     1.0000 0.37136  0.09487  0.95961  Biso   1.000  C
  C729     1.0000 0.34836  0.06310  0.94524  Biso   1.000  C
  H595     1.0000 0.32867  0.06353  0.93643  Biso   1.000  H
  C730     1.0000 0.35474  0.03080  0.94408  Biso   1.000  C
  H596     1.0000 0.33937  0.00953  0.93443  Biso   1.000  H
  C731     1.0000 0.38420  0.03027  0.95738  Biso   1.000  C
  H597     1.0000 0.38847  0.00863  0.95663  Biso   1.000  H
  C732     1.0000 0.40706  0.06192  0.97171  Biso   1.000  C
  C733     1.0000 0.40081  0.09426  0.97287  Biso   1.000  C
  H598     1.0000 0.41627  0.11553  0.98243  Biso   1.000  H
  C734     1.0000 0.46015  0.08892  0.99816  Biso   1.000  C
  H599     1.0000 0.47697  0.11373  0.99013  Biso   1.000  H
  H600     1.0000 0.44487  0.09373  0.00943  Biso   1.000  H
  C735     1.0000 0.48578  0.07325  0.00929  Biso   1.000  C
  C736     1.0000 0.51531  0.07189  0.99689  Biso   1.000  C
  C737     1.0000 0.53403  0.05338  0.00637  Biso   1.000  C
  C738     1.0000 0.52784  0.04071  0.02825  Biso   1.000  C
  C739     1.0000 0.49948  0.04420  0.04062  Biso   1.000  C
  C740     1.0000 0.47601  0.05922  0.03068  Biso   1.000  C
  C741     1.0000 0.44224  0.05843  0.04352  Biso   1.000  C
  H601     1.0000 0.42037  0.05213  0.03343  Biso   1.000  H
  H602     1.0000 0.43357  0.03853  0.05513  Biso   1.000  H
  H603     1.0000 0.45107  0.08413  0.05023  Biso   1.000  H
  C742     1.0000 0.52695  0.08961  0.97356  Biso   1.000  C
  H604     1.0000 0.53057  0.11603  0.97353  Biso   1.000  H
  H605     1.0000 0.55147  0.09083  0.96923  Biso   1.000  H
  H606     1.0000 0.50627  0.07313  0.96313  Biso   1.000  H
  C743     1.0000 0.55039  0.02269  0.03848  Biso   1.000  C
  H607     1.0000 0.57457  0.03093  0.03013  Biso   1.000  H
  H608     1.0000 0.55687  0.03143  0.05383  Biso   1.000  H
  H609     1.0000 0.53427  0.99403  0.03813  Biso   1.000  H
  C744     1.0000 0.56254  0.04591  0.99271  Biso   1.000  C
  H610     1.0000 0.55597  0.04433  0.97683  Biso   1.000  H
  H611     1.0000 0.56057  0.02083  0.99723  Biso   1.000  H
  C745     1.0000 0.63258  0.07512  0.98604  Biso   1.000  C
  C746     1.0000 0.62526  0.04291  0.97249  Biso   1.000  C
  H612     1.0000 0.59907  0.02283  0.96963  Biso   1.000  H
  C747     1.0000 0.65626  0.04074  0.96335  Biso   1.000  C
  H613     1.0000 0.65137  0.01833  0.95503  Biso   1.000  H
  C748     1.0000 0.69511  0.07147  0.96631  Biso   1.000  C
  H614     1.0000 0.71627  0.07073  0.95933  Biso   1.000  H
  C749     1.0000 0.70200  0.10419  0.98013  Biso   1.000  C
  C750     1.0000 0.67034  0.10532  0.98966  Biso   1.000  C
  H615     1.0000 0.67477  0.12693  0.99863  Biso   1.000  H
  C751     1.0000 0.74391  0.13696  0.98397  Biso   1.000  C
  C752     1.0000 0.49079  0.02968  0.06445  Biso   1.000  C
  H616     1.0000 0.47957  0.04363  0.07243  Biso   1.000  H
  H617     1.0000 0.51547  0.03543  0.07193  Biso   1.000  H
  C753     1.0000 0.45678  0.96925  0.08469  Biso   1.000  C
  C754     1.0000 0.43014  0.92739  0.08395  Biso   1.000  C
  H618     1.0000 0.41837  0.91513  0.07033  Biso   1.000  H
  C755     1.0000 0.42180  0.90525  0.10277  Biso   1.000  C
  H619     1.0000 0.40487  0.87773  0.10203  Biso   1.000  H
  C756     1.0000 0.43846  0.92344  0.12344  Biso   1.000  C
  H620     1.0000 0.43127  0.90833  0.13653  Biso   1.000  H
  C757     1.0000 0.46575  0.96420  0.12423  Biso   1.000  C
  C758     1.0000 0.47336  0.98590  0.10479  Biso   1.000  C
  H621     1.0000 0.49077  0.01333  0.10543  Biso   1.000  H
  C759     1.0000 0.48395  0.98427  0.14563  Biso   1.000  C
  O199     1.0000 0.33055  0.12254  0.95283  Biso   1.000  O
  O200     1.0000 0.37699  0.15180  0.97705  Biso   1.000  O
  O201     1.0000 0.43409  0.05839  0.98289  Biso   1.000  O
  O202     1.0000 0.46396  0.98862  0.06510  Biso   1.000  O
  O203     1.0000 0.50803  0.02108  0.14466  Biso   1.000  O
  O204     1.0000 0.47453  0.96401  0.16304  Biso   1.000  O
  O205     1.0000 0.60284  0.07869  0.99659  Biso   1.000  O
  O206     1.0000 0.75054  0.16846  0.99227  Biso   1.000  O
  O207     1.0000 0.77071  0.13012  0.97661  Biso   1.000  O
  Co45     1.0000 0.83125  0.15582  0.97235  Biso   1.000  Co
  Co46     1.0000 0.80658  0.21843  0.00474  Biso   1.000  Co
  Co47     1.0000 0.50208  0.99124  0.19432  Biso   1.000  Co
  Co48     1.0000 0.52676  0.07852  0.16193  Biso   1.000  Co
  C760     1.0000 0.97289  0.43117  0.20349  Biso   1.000  C
  C761     1.0000 0.96198  0.39018  0.20705  Biso   1.000  C
  C762     1.0000 0.98498  0.38141  0.22142  Biso   1.000  C
  H622     1.0000 0.00467  0.40153  0.23023  Biso   1.000  H
  C763     1.0000 0.97860  0.34273  0.22258  Biso   1.000  C
  H623     1.0000 0.99397  0.33683  0.23223  Biso   1.000  H
  C764     1.0000 0.94914  0.31274  0.20928  Biso   1.000  C
  H624     1.0000 0.94487  0.28683  0.21003  Biso   1.000  H
  C765     1.0000 0.92628  0.32153  0.19495  Biso   1.000  C
  C766     1.0000 0.93253  0.36012  0.19379  Biso   1.000  C
  H625     1.0000 0.91707  0.36593  0.18423  Biso   1.000  H
  C767     1.0000 0.87319  0.29544  0.16850  Biso   1.000  C
  H626     1.0000 0.85637  0.30343  0.17653  Biso   1.000  H
  H627     1.0000 0.88847  0.31553  0.15723  Biso   1.000  H
  C768     1.0000 0.84756  0.25414  0.15737  Biso   1.000  C
  C769     1.0000 0.81803  0.22325  0.16977  Biso   1.000  C
  C770     1.0000 0.79931  0.18602  0.16029  Biso   1.000  C
  C771     1.0000 0.80550  0.17954  0.13841  Biso   1.000  C
  C772     1.0000 0.83386  0.21139  0.12604  Biso   1.000  C
  C773     1.0000 0.85733  0.24988  0.13598  Biso   1.000  C
  C774     1.0000 0.89110  0.28286  0.12314  Biso   1.000  C
  H628     1.0000 0.91297  0.29843  0.13323  Biso   1.000  H
  H629     1.0000 0.89977  0.27163  0.11153  Biso   1.000  H
  H630     1.0000 0.88227  0.29973  0.11643  Biso   1.000  H
  C775     1.0000 0.80639  0.22933  0.19310  Biso   1.000  C
  H631     1.0000 0.80277  0.25213  0.19313  Biso   1.000  H
  H632     1.0000 0.78187  0.20603  0.19743  Biso   1.000  H
  H633     1.0000 0.82707  0.23353  0.20353  Biso   1.000  H
  C776     1.0000 0.78295  0.13897  0.12818  Biso   1.000  C
  H634     1.0000 0.75877  0.12303  0.13653  Biso   1.000  H
  H635     1.0000 0.77647  0.14123  0.11283  Biso   1.000  H
  H636     1.0000 0.79907  0.12643  0.12853  Biso   1.000  H
  C777     1.0000 0.77080  0.15004  0.17395  Biso   1.000  C
  H637     1.0000 0.77737  0.15503  0.18983  Biso   1.000  H
  H638     1.0000 0.77277  0.12693  0.16943  Biso   1.000  H
  C778     1.0000 0.70076  0.10921  0.18062  Biso   1.000  C
  C779     1.0000 0.70808  0.08432  0.19417  Biso   1.000  C
  H639     1.0000 0.73427  0.09043  0.19703  Biso   1.000  H
  C780     1.0000 0.67708  0.05115  0.20331  Biso   1.000  C
  H640     1.0000 0.68197  0.03363  0.21163  Biso   1.000  H
  C781     1.0000 0.63823  0.04303  0.20035  Biso   1.000  C
  H641     1.0000 0.61707  0.02113  0.20733  Biso   1.000  H
  C782     1.0000 0.63134  0.06886  0.18653  Biso   1.000  C
  C783     1.0000 0.66300  0.10165  0.17700  Biso   1.000  C
  H642     1.0000 0.65857  0.11883  0.16803  Biso   1.000  H
  C784     1.0000 0.58943  0.05972  0.18269  Biso   1.000  C
  C785     1.0000 0.84255  0.20556  0.10221  Biso   1.000  C
  H643     1.0000 0.85377  0.23073  0.09423  Biso   1.000  H
  H644     1.0000 0.81787  0.18663  0.09473  Biso   1.000  H
  C786     1.0000 0.87656  0.17914  0.08197  Biso   1.000  C
  C787     1.0000 0.90320  0.16392  0.08271  Biso   1.000  C
  H645     1.0000 0.91497  0.16343  0.09633  Biso   1.000  H
  C788     1.0000 0.91154  0.15012  0.06389  Biso   1.000  C
  H646     1.0000 0.92847  0.13953  0.06463  Biso   1.000  H
  C789     1.0000 0.89488  0.15165  0.04322  Biso   1.000  C
  H647     1.0000 0.90207  0.14373  0.03013  Biso   1.000  H
  C790     1.0000 0.86759  0.16512  0.04243  Biso   1.000  C
  C791     1.0000 0.85998  0.17921  0.06187  Biso   1.000  C
  H648     1.0000 0.84257  0.18923  0.06123  Biso   1.000  H
  C792     1.0000 0.84939  0.16699  0.02103  Biso   1.000  C
  O208     1.0000 0.00279  0.45866  0.21383  Biso   1.000  O
  O209     1.0000 0.95635  0.44148  0.18961  Biso   1.000  O
  O210     1.0000 0.89925  0.29097  0.18377  Biso   1.000  O
  O211     1.0000 0.86938  0.19133  0.10156  Biso   1.000  O
  O212     1.0000 0.82531  0.17972  0.02200  Biso   1.000  O
  O213     1.0000 0.85881  0.15615  0.00362  Biso   1.000  O
  O214     1.0000 0.73050  0.14252  0.17007  Biso   1.000  O
  O215     1.0000 0.58280  0.08459  0.17439  Biso   1.000  O
  O216     1.0000 0.56263  0.02608  0.19005  Biso   1.000  O
  Co49     1.0000 0.32457  0.16875  0.97235  Biso   1.000  Co
  Co50     1.0000 0.41185  0.19342  0.00474  Biso   1.000  Co
  C793     1.0000 0.76451  0.63955  0.96317  Biso   1.000  C
  C794     1.0000 0.72352  0.62864  0.95961  Biso   1.000  C
  C795     1.0000 0.71475  0.65164  0.94524  Biso   1.000  C
  H649     1.0000 0.73487  0.67133  0.93643  Biso   1.000  H
  C796     1.0000 0.67607  0.64526  0.94408  Biso   1.000  C
  H650     1.0000 0.67017  0.66063  0.93443  Biso   1.000  H
  C797     1.0000 0.64608  0.61580  0.95738  Biso   1.000  C
  H651     1.0000 0.62017  0.61153  0.95663  Biso   1.000  H
  C798     1.0000 0.65487  0.59294  0.97171  Biso   1.000  C
  C799     1.0000 0.69346  0.59919  0.97287  Biso   1.000  C
  H652     1.0000 0.69927  0.58373  0.98243  Biso   1.000  H
  C800     1.0000 0.62878  0.53985  0.99816  Biso   1.000  C
  H653     1.0000 0.63677  0.52303  0.99013  Biso   1.000  H
  H654     1.0000 0.64887  0.55513  0.00943  Biso   1.000  H
  C801     1.0000 0.58748  0.51422  0.00929  Biso   1.000  C
  C802     1.0000 0.55659  0.48469  0.99689  Biso   1.000  C
  C803     1.0000 0.51936  0.46597  0.00637  Biso   1.000  C
  C804     1.0000 0.51288  0.47216  0.02825  Biso   1.000  C
  C805     1.0000 0.54473  0.50052  0.04062  Biso   1.000  C
  C806     1.0000 0.58322  0.52399  0.03068  Biso   1.000  C
  C807     1.0000 0.61620  0.55776  0.04352  Biso   1.000  C
  H655     1.0000 0.63177  0.57963  0.03343  Biso   1.000  H
  H656     1.0000 0.60497  0.56643  0.05513  Biso   1.000  H
  H657     1.0000 0.63307  0.54893  0.05023  Biso   1.000  H
  C808     1.0000 0.56267  0.47305  0.97356  Biso   1.000  C
  H658     1.0000 0.58547  0.46943  0.97353  Biso   1.000  H
  H659     1.0000 0.53937  0.44853  0.96923  Biso   1.000  H
  H660     1.0000 0.56687  0.49373  0.96313  Biso   1.000  H
  C809     1.0000 0.47231  0.44961  0.03848  Biso   1.000  C
  H661     1.0000 0.45637  0.42543  0.03013  Biso   1.000  H
  H662     1.0000 0.47457  0.44313  0.05383  Biso   1.000  H
  H663     1.0000 0.45977  0.46573  0.03813  Biso   1.000  H
  C810     1.0000 0.48338  0.43746  0.99271  Biso   1.000  C
  H664     1.0000 0.48837  0.44403  0.97683  Biso   1.000  H
  H665     1.0000 0.46027  0.43943  0.99723  Biso   1.000  H
  C811     1.0000 0.44255  0.36742  0.98604  Biso   1.000  C
  C812     1.0000 0.41766  0.37474  0.97249  Biso   1.000  C
  H666     1.0000 0.42377  0.40093  0.96963  Biso   1.000  H
  C813     1.0000 0.38449  0.34374  0.96335  Biso   1.000  C
  H667     1.0000 0.36697  0.34863  0.95503  Biso   1.000  H
  C814     1.0000 0.37637  0.30489  0.96631  Biso   1.000  C
  H668     1.0000 0.35447  0.28373  0.95933  Biso   1.000  H
  C815     1.0000 0.40220  0.29800  0.98013  Biso   1.000  C
  C816     1.0000 0.43499  0.32966  0.98966  Biso   1.000  C
  H669     1.0000 0.45217  0.32523  0.99863  Biso   1.000  H
  C817     1.0000 0.39306  0.25609  0.98397  Biso   1.000  C
  C818     1.0000 0.53890  0.50921  0.06445  Biso   1.000  C
  H670     1.0000 0.56407  0.52043  0.07243  Biso   1.000  H
  H671     1.0000 0.51997  0.48453  0.07193  Biso   1.000  H
  C819     1.0000 0.51248  0.54322  0.08469  Biso   1.000  C
  C820     1.0000 0.49726  0.56986  0.08395  Biso   1.000  C
  H672     1.0000 0.49677  0.58163  0.07033  Biso   1.000  H
  C821     1.0000 0.48346  0.57820  0.10277  Biso   1.000  C
  H673     1.0000 0.47287  0.59513  0.10203  Biso   1.000  H
  C822     1.0000 0.48499  0.56154  0.12344  Biso   1.000  C
  H674     1.0000 0.47707  0.56873  0.13653  Biso   1.000  H
  C823     1.0000 0.49846  0.53425  0.12423  Biso   1.000  C
  C824     1.0000 0.51255  0.52664  0.10479  Biso   1.000  C
  H675     1.0000 0.52257  0.50923  0.10543  Biso   1.000  H
  C825     1.0000 0.50033  0.51605  0.14563  Biso   1.000  C
  O217     1.0000 0.79200  0.66945  0.95283  Biso   1.000  O
  O218     1.0000 0.77482  0.62301  0.97705  Biso   1.000  O
  O219     1.0000 0.62431  0.56591  0.98289  Biso   1.000  O
  O220     1.0000 0.52467  0.53604  0.06510  Biso   1.000  O
  O221     1.0000 0.51306  0.49197  0.14466  Biso   1.000  O
  O222     1.0000 0.48949  0.52547  0.16304  Biso   1.000  O
  O223     1.0000 0.47586  0.39716  0.99659  Biso   1.000  O
  O224     1.0000 0.41793  0.24946  0.99227  Biso   1.000  O
  O225     1.0000 0.35942  0.22929  0.97661  Biso   1.000  O
  C826     1.0000 0.45829  0.02711  0.20349  Biso   1.000  C
  C827     1.0000 0.42821  0.03802  0.20705  Biso   1.000  C
  C828     1.0000 0.39644  0.01502  0.22142  Biso   1.000  C
  H676     1.0000 0.39687  0.99533  0.23023  Biso   1.000  H
  C829     1.0000 0.36414  0.02140  0.22258  Biso   1.000  C
  H677     1.0000 0.34287  0.00603  0.23223  Biso   1.000  H
  C830     1.0000 0.36361  0.05086  0.20928  Biso   1.000  C
  H678     1.0000 0.34197  0.05513  0.21003  Biso   1.000  H
  C831     1.0000 0.39526  0.07372  0.19495  Biso   1.000  C
  C832     1.0000 0.42760  0.06747  0.19379  Biso   1.000  C
  H679     1.0000 0.44887  0.08293  0.18423  Biso   1.000  H
  C833     1.0000 0.42226  0.12681  0.16850  Biso   1.000  C
  H680     1.0000 0.44707  0.14363  0.17653  Biso   1.000  H
  H681     1.0000 0.42707  0.11153  0.15723  Biso   1.000  H
  C834     1.0000 0.40659  0.15244  0.15737  Biso   1.000  C
  C835     1.0000 0.40523  0.18197  0.16977  Biso   1.000  C
  C836     1.0000 0.38672  0.20069  0.16029  Biso   1.000  C
  C837     1.0000 0.37405  0.19450  0.13841  Biso   1.000  C
  C838     1.0000 0.37754  0.16614  0.12604  Biso   1.000  C
  C839     1.0000 0.39256  0.14267  0.13598  Biso   1.000  C
  C840     1.0000 0.39177  0.10890  0.12314  Biso   1.000  C
  H682     1.0000 0.38547  0.08703  0.13323  Biso   1.000  H
  H683     1.0000 0.37187  0.10023  0.11153  Biso   1.000  H
  H684     1.0000 0.41747  0.11773  0.11643  Biso   1.000  H
  C841     1.0000 0.42295  0.19361  0.19310  Biso   1.000  C
  H685     1.0000 0.44937  0.19723  0.19313  Biso   1.000  H
  H686     1.0000 0.42417  0.21813  0.19743  Biso   1.000  H
  H687     1.0000 0.40647  0.17293  0.20353  Biso   1.000  H
  C842     1.0000 0.35603  0.21705  0.12818  Biso   1.000  C
  H688     1.0000 0.36427  0.24123  0.13653  Biso   1.000  H
  H689     1.0000 0.36477  0.22353  0.11283  Biso   1.000  H
  H690     1.0000 0.32737  0.20093  0.12853  Biso   1.000  H
  C843     1.0000 0.37925  0.22920  0.17395  Biso   1.000  C
  H691     1.0000 0.37767  0.22263  0.18983  Biso   1.000  H
  H692     1.0000 0.35417  0.22723  0.16943  Biso   1.000  H
  C844     1.0000 0.40846  0.29924  0.18062  Biso   1.000  C
  C845     1.0000 0.37625  0.29192  0.19417  Biso   1.000  C
  H693     1.0000 0.35617  0.26573  0.19703  Biso   1.000  H
  C846     1.0000 0.37408  0.32292  0.20331  Biso   1.000  C
  H694     1.0000 0.35167  0.31803  0.21163  Biso   1.000  H
  C847     1.0000 0.40481  0.36177  0.20035  Biso   1.000  C
  H695     1.0000 0.40407  0.38293  0.20733  Biso   1.000  H
  C848     1.0000 0.43753  0.36866  0.18653  Biso   1.000  C
  C849     1.0000 0.43866  0.33700  0.17700  Biso   1.000  C
  H696     1.0000 0.46027  0.34143  0.16803  Biso   1.000  H
  C850     1.0000 0.47030  0.41057  0.18269  Biso   1.000  C
  C851     1.0000 0.36302  0.15745  0.10221  Biso   1.000  C
  H697     1.0000 0.37697  0.14623  0.09423  Biso   1.000  H
  H698     1.0000 0.36877  0.18213  0.09473  Biso   1.000  H
  C852     1.0000 0.30259  0.12344  0.08197  Biso   1.000  C
  C853     1.0000 0.26073  0.09680  0.08271  Biso   1.000  C
  H699     1.0000 0.24847  0.08503  0.09633  Biso   1.000  H
  C854     1.0000 0.23859  0.08846  0.06389  Biso   1.000  C
  H700     1.0000 0.21107  0.07153  0.06463  Biso   1.000  H
  C855     1.0000 0.25678  0.10512  0.04322  Biso   1.000  C
  H701     1.0000 0.24167  0.09793  0.03013  Biso   1.000  H
  C856     1.0000 0.29754  0.13241  0.04243  Biso   1.000  C
  C857     1.0000 0.31924  0.14002  0.06187  Biso   1.000  C
  H702     1.0000 0.34667  0.15743  0.06123  Biso   1.000  H
  C858     1.0000 0.31761  0.15061  0.02103  Biso   1.000  C
  O226     1.0000 0.45588  0.99721  0.21383  Biso   1.000  O
  O227     1.0000 0.48514  0.04365  0.18961  Biso   1.000  O
  O228     1.0000 0.39173  0.10075  0.18377  Biso   1.000  O
  O229     1.0000 0.32196  0.13062  0.10156  Biso   1.000  O
  O230     1.0000 0.35442  0.17469  0.02200  Biso   1.000  O
  O231     1.0000 0.29735  0.14119  0.00362  Biso   1.000  O
  O232     1.0000 0.41203  0.26950  0.17007  Biso   1.000  O
  O233     1.0000 0.50180  0.41720  0.17439  Biso   1.000  O
  O234     1.0000 0.46346  0.43737  0.19005  Biso   1.000  O
  Co51     1.0000 0.48916  0.49792  0.19432  Biso   1.000  Co
  Co52     1.0000 0.55176  0.47324  0.16193  Biso   1.000  Co
  C859     1.0000 0.02711  0.45829  0.29651  Biso   1.000  C
  C860     1.0000 0.03802  0.42821  0.29295  Biso   1.000  C
  C861     1.0000 0.01502  0.39644  0.27858  Biso   1.000  C
  H703     1.0000 0.99533  0.39687  0.26977  Biso   1.000  H
  C862     1.0000 0.02140  0.36414  0.27742  Biso   1.000  C
  H704     1.0000 0.00603  0.34287  0.26777  Biso   1.000  H
  C863     1.0000 0.05086  0.36361  0.29072  Biso   1.000  C
  H705     1.0000 0.05513  0.34197  0.28997  Biso   1.000  H
  C864     1.0000 0.07372  0.39526  0.30505  Biso   1.000  C
  C865     1.0000 0.06747  0.42760  0.30621  Biso   1.000  C
  H706     1.0000 0.08293  0.44887  0.31577  Biso   1.000  H
  C866     1.0000 0.12681  0.42226  0.33150  Biso   1.000  C
  H707     1.0000 0.14363  0.44707  0.32347  Biso   1.000  H
  H708     1.0000 0.11153  0.42707  0.34277  Biso   1.000  H
  C867     1.0000 0.15244  0.40659  0.34263  Biso   1.000  C
  C868     1.0000 0.18197  0.40523  0.33023  Biso   1.000  C
  C869     1.0000 0.20069  0.38672  0.33971  Biso   1.000  C
  C870     1.0000 0.19450  0.37405  0.36159  Biso   1.000  C
  C871     1.0000 0.16614  0.37754  0.37396  Biso   1.000  C
  C872     1.0000 0.14267  0.39256  0.36402  Biso   1.000  C
  C873     1.0000 0.10890  0.39177  0.37686  Biso   1.000  C
  H709     1.0000 0.08703  0.38547  0.36677  Biso   1.000  H
  H710     1.0000 0.10023  0.37187  0.38847  Biso   1.000  H
  H711     1.0000 0.11773  0.41747  0.38357  Biso   1.000  H
  C874     1.0000 0.19361  0.42295  0.30690  Biso   1.000  C
  H712     1.0000 0.19723  0.44937  0.30687  Biso   1.000  H
  H713     1.0000 0.21813  0.42417  0.30257  Biso   1.000  H
  H714     1.0000 0.17293  0.40647  0.29647  Biso   1.000  H
  C875     1.0000 0.21705  0.35603  0.37182  Biso   1.000  C
  H715     1.0000 0.24123  0.36427  0.36347  Biso   1.000  H
  H716     1.0000 0.22353  0.36477  0.38717  Biso   1.000  H
  H717     1.0000 0.20093  0.32737  0.37147  Biso   1.000  H
  C876     1.0000 0.22920  0.37925  0.32605  Biso   1.000  C
  H718     1.0000 0.22263  0.37767  0.31017  Biso   1.000  H
  H719     1.0000 0.22723  0.35417  0.33057  Biso   1.000  H
  C877     1.0000 0.29924  0.40846  0.31938  Biso   1.000  C
  C878     1.0000 0.29192  0.37625  0.30583  Biso   1.000  C
  H720     1.0000 0.26573  0.35617  0.30297  Biso   1.000  H
  C879     1.0000 0.32292  0.37408  0.29669  Biso   1.000  C
  H721     1.0000 0.31803  0.35167  0.28837  Biso   1.000  H
  C880     1.0000 0.36177  0.40481  0.29965  Biso   1.000  C
  H722     1.0000 0.38293  0.40407  0.29267  Biso   1.000  H
  C881     1.0000 0.36866  0.43753  0.31347  Biso   1.000  C
  C882     1.0000 0.33700  0.43866  0.32300  Biso   1.000  C
  H723     1.0000 0.34143  0.46027  0.33197  Biso   1.000  H
  C883     1.0000 0.41057  0.47030  0.31731  Biso   1.000  C
  C884     1.0000 0.15745  0.36302  0.39779  Biso   1.000  C
  H724     1.0000 0.14623  0.37697  0.40577  Biso   1.000  H
  H725     1.0000 0.18213  0.36877  0.40527  Biso   1.000  H
  C885     1.0000 0.12344  0.30259  0.41803  Biso   1.000  C
  C886     1.0000 0.09680  0.26073  0.41729  Biso   1.000  C
  H726     1.0000 0.08503  0.24847  0.40367  Biso   1.000  H
  C887     1.0000 0.08846  0.23859  0.43611  Biso   1.000  C
  H727     1.0000 0.07153  0.21107  0.43537  Biso   1.000  H
  C888     1.0000 0.10512  0.25678  0.45678  Biso   1.000  C
  H728     1.0000 0.09793  0.24167  0.46987  Biso   1.000  H
  C889     1.0000 0.13241  0.29754  0.45757  Biso   1.000  C
  C890     1.0000 0.14002  0.31924  0.43813  Biso   1.000  C
  H729     1.0000 0.15743  0.34667  0.43877  Biso   1.000  H
  C891     1.0000 0.15061  0.31761  0.47897  Biso   1.000  C
  O235     1.0000 0.99721  0.45588  0.28617  Biso   1.000  O
  O236     1.0000 0.04365  0.48514  0.31039  Biso   1.000  O
  O237     1.0000 0.10075  0.39173  0.31623  Biso   1.000  O
  O238     1.0000 0.13062  0.32196  0.39844  Biso   1.000  O
  O239     1.0000 0.17469  0.35442  0.47800  Biso   1.000  O
  O240     1.0000 0.14119  0.29735  0.49638  Biso   1.000  O
  O241     1.0000 0.26950  0.41203  0.32993  Biso   1.000  O
  O242     1.0000 0.41720  0.50180  0.32561  Biso   1.000  O
  O243     1.0000 0.43737  0.46346  0.30995  Biso   1.000  O
  Co53     1.0000 0.49792  0.48916  0.30568  Biso   1.000  Co
  Co54     1.0000 0.47324  0.55176  0.33807  Biso   1.000  Co
  Co55     1.0000 0.16875  0.32457  0.52765  Biso   1.000  Co
  Co56     1.0000 0.19342  0.41185  0.49526  Biso   1.000  Co
  C892     1.0000 0.63955  0.76451  0.53683  Biso   1.000  C
  C893     1.0000 0.62864  0.72352  0.54039  Biso   1.000  C
  C894     1.0000 0.65164  0.71475  0.55476  Biso   1.000  C
  H730     1.0000 0.67133  0.73487  0.56357  Biso   1.000  H
  C895     1.0000 0.64526  0.67607  0.55592  Biso   1.000  C
  H731     1.0000 0.66063  0.67017  0.56557  Biso   1.000  H
  C896     1.0000 0.61580  0.64608  0.54262  Biso   1.000  C
  H732     1.0000 0.61153  0.62017  0.54337  Biso   1.000  H
  C897     1.0000 0.59294  0.65487  0.52829  Biso   1.000  C
  C898     1.0000 0.59919  0.69346  0.52713  Biso   1.000  C
  H733     1.0000 0.58373  0.69927  0.51757  Biso   1.000  H
  C899     1.0000 0.53985  0.62878  0.50184  Biso   1.000  C
  H734     1.0000 0.52303  0.63677  0.50987  Biso   1.000  H
  H735     1.0000 0.55513  0.64887  0.49057  Biso   1.000  H
  C900     1.0000 0.51422  0.58748  0.49071  Biso   1.000  C
  C901     1.0000 0.48469  0.55659  0.50311  Biso   1.000  C
  C902     1.0000 0.46597  0.51936  0.49363  Biso   1.000  C
  C903     1.0000 0.47216  0.51288  0.47175  Biso   1.000  C
  C904     1.0000 0.50052  0.54473  0.45938  Biso   1.000  C
  C905     1.0000 0.52399  0.58322  0.46932  Biso   1.000  C
  C906     1.0000 0.55776  0.61620  0.45648  Biso   1.000  C
  H736     1.0000 0.57963  0.63177  0.46657  Biso   1.000  H
  H737     1.0000 0.56643  0.60497  0.44487  Biso   1.000  H
  H738     1.0000 0.54893  0.63307  0.44977  Biso   1.000  H
  C907     1.0000 0.47305  0.56267  0.52644  Biso   1.000  C
  H739     1.0000 0.46943  0.58547  0.52647  Biso   1.000  H
  H740     1.0000 0.44853  0.53937  0.53077  Biso   1.000  H
  H741     1.0000 0.49373  0.56687  0.53687  Biso   1.000  H
  C908     1.0000 0.44961  0.47231  0.46152  Biso   1.000  C
  H742     1.0000 0.42543  0.45637  0.46987  Biso   1.000  H
  H743     1.0000 0.44313  0.47457  0.44617  Biso   1.000  H
  H744     1.0000 0.46573  0.45977  0.46187  Biso   1.000  H
  C909     1.0000 0.43746  0.48338  0.50729  Biso   1.000  C
  H745     1.0000 0.44403  0.48837  0.52317  Biso   1.000  H
  H746     1.0000 0.43943  0.46027  0.50277  Biso   1.000  H
  C910     1.0000 0.36742  0.44255  0.51396  Biso   1.000  C
  C911     1.0000 0.37474  0.41766  0.52751  Biso   1.000  C
  H747     1.0000 0.40093  0.42377  0.53037  Biso   1.000  H
  C912     1.0000 0.34374  0.38449  0.53665  Biso   1.000  C
  H748     1.0000 0.34863  0.36697  0.54497  Biso   1.000  H
  C913     1.0000 0.30489  0.37637  0.53369  Biso   1.000  C
  H749     1.0000 0.28373  0.35447  0.54067  Biso   1.000  H
  C914     1.0000 0.29800  0.40220  0.51987  Biso   1.000  C
  C915     1.0000 0.32966  0.43499  0.51034  Biso   1.000  C
  H750     1.0000 0.32523  0.45217  0.50137  Biso   1.000  H
  C916     1.0000 0.25609  0.39306  0.51603  Biso   1.000  C
  C917     1.0000 0.50921  0.53890  0.43555  Biso   1.000  C
  H751     1.0000 0.52043  0.56407  0.42757  Biso   1.000  H
  H752     1.0000 0.48453  0.51997  0.42807  Biso   1.000  H
  C918     1.0000 0.54322  0.51248  0.41531  Biso   1.000  C
  C919     1.0000 0.56986  0.49726  0.41605  Biso   1.000  C
  H753     1.0000 0.58163  0.49677  0.42967  Biso   1.000  H
  C920     1.0000 0.57820  0.48346  0.39723  Biso   1.000  C
  H754     1.0000 0.59513  0.47287  0.39797  Biso   1.000  H
  C921     1.0000 0.56154  0.48499  0.37656  Biso   1.000  C
  H755     1.0000 0.56873  0.47707  0.36347  Biso   1.000  H
  C922     1.0000 0.53425  0.49846  0.37577  Biso   1.000  C
  C923     1.0000 0.52664  0.51255  0.39521  Biso   1.000  C
  H756     1.0000 0.50923  0.52257  0.39457  Biso   1.000  H
  C924     1.0000 0.51605  0.50033  0.35437  Biso   1.000  C
  O244     1.0000 0.66945  0.79200  0.54717  Biso   1.000  O
  O245     1.0000 0.62301  0.77482  0.52295  Biso   1.000  O
  O246     1.0000 0.56591  0.62431  0.51711  Biso   1.000  O
  O247     1.0000 0.53604  0.52467  0.43490  Biso   1.000  O
  O248     1.0000 0.49197  0.51306  0.35534  Biso   1.000  O
  O249     1.0000 0.52547  0.48949  0.33696  Biso   1.000  O
  O250     1.0000 0.39716  0.47586  0.50341  Biso   1.000  O
  O251     1.0000 0.24946  0.41793  0.50773  Biso   1.000  O
  O252     1.0000 0.22929  0.35942  0.52339  Biso   1.000  O
  Co57     1.0000 0.99124  0.50208  0.30568  Biso   1.000  Co
  Co58     1.0000 0.07852  0.52676  0.33807  Biso   1.000  Co
  C925     1.0000 0.43117  0.97289  0.29651  Biso   1.000  C
  C926     1.0000 0.39018  0.96198  0.29295  Biso   1.000  C
  C927     1.0000 0.38141  0.98498  0.27858  Biso   1.000  C
  H757     1.0000 0.40153  0.00467  0.26977  Biso   1.000  H
  C928     1.0000 0.34273  0.97860  0.27742  Biso   1.000  C
  H758     1.0000 0.33683  0.99397  0.26777  Biso   1.000  H
  C929     1.0000 0.31274  0.94914  0.29072  Biso   1.000  C
  H759     1.0000 0.28683  0.94487  0.28997  Biso   1.000  H
  C930     1.0000 0.32153  0.92628  0.30505  Biso   1.000  C
  C931     1.0000 0.36012  0.93253  0.30621  Biso   1.000  C
  H760     1.0000 0.36593  0.91707  0.31577  Biso   1.000  H
  C932     1.0000 0.29544  0.87319  0.33150  Biso   1.000  C
  H761     1.0000 0.30343  0.85637  0.32347  Biso   1.000  H
  H762     1.0000 0.31553  0.88847  0.34277  Biso   1.000  H
  C933     1.0000 0.25414  0.84756  0.34263  Biso   1.000  C
  C934     1.0000 0.22325  0.81803  0.33023  Biso   1.000  C
  C935     1.0000 0.18602  0.79931  0.33971  Biso   1.000  C
  C936     1.0000 0.17954  0.80550  0.36159  Biso   1.000  C
  C937     1.0000 0.21139  0.83386  0.37396  Biso   1.000  C
  C938     1.0000 0.24988  0.85733  0.36402  Biso   1.000  C
  C939     1.0000 0.28286  0.89110  0.37686  Biso   1.000  C
  H763     1.0000 0.29843  0.91297  0.36677  Biso   1.000  H
  H764     1.0000 0.27163  0.89977  0.38847  Biso   1.000  H
  H765     1.0000 0.29973  0.88227  0.38357  Biso   1.000  H
  C940     1.0000 0.22933  0.80639  0.30690  Biso   1.000  C
  H766     1.0000 0.25213  0.80277  0.30687  Biso   1.000  H
  H767     1.0000 0.20603  0.78187  0.30257  Biso   1.000  H
  H768     1.0000 0.23353  0.82707  0.29647  Biso   1.000  H
  C941     1.0000 0.13897  0.78295  0.37182  Biso   1.000  C
  H769     1.0000 0.12303  0.75877  0.36347  Biso   1.000  H
  H770     1.0000 0.14123  0.77647  0.38717  Biso   1.000  H
  H771     1.0000 0.12643  0.79907  0.37147  Biso   1.000  H
  C942     1.0000 0.15004  0.77080  0.32605  Biso   1.000  C
  H772     1.0000 0.15503  0.77737  0.31017  Biso   1.000  H
  H773     1.0000 0.12693  0.77277  0.33057  Biso   1.000  H
  C943     1.0000 0.10921  0.70076  0.31938  Biso   1.000  C
  C944     1.0000 0.08432  0.70808  0.30583  Biso   1.000  C
  H774     1.0000 0.09043  0.73427  0.30297  Biso   1.000  H
  C945     1.0000 0.05115  0.67708  0.29669  Biso   1.000  C
  H775     1.0000 0.03363  0.68197  0.28837  Biso   1.000  H
  C946     1.0000 0.04303  0.63823  0.29965  Biso   1.000  C
  H776     1.0000 0.02113  0.61707  0.29267  Biso   1.000  H
  C947     1.0000 0.06886  0.63134  0.31347  Biso   1.000  C
  C948     1.0000 0.10165  0.66300  0.32300  Biso   1.000  C
  H777     1.0000 0.11883  0.65857  0.33197  Biso   1.000  H
  C949     1.0000 0.05972  0.58943  0.31731  Biso   1.000  C
  C950     1.0000 0.20556  0.84255  0.39779  Biso   1.000  C
  H778     1.0000 0.23073  0.85377  0.40577  Biso   1.000  H
  H779     1.0000 0.18663  0.81787  0.40527  Biso   1.000  H
  C951     1.0000 0.17914  0.87656  0.41803  Biso   1.000  C
  C952     1.0000 0.16392  0.90320  0.41729  Biso   1.000  C
  H780     1.0000 0.16343  0.91497  0.40367  Biso   1.000  H
  C953     1.0000 0.15012  0.91154  0.43611  Biso   1.000  C
  H781     1.0000 0.13953  0.92847  0.43537  Biso   1.000  H
  C954     1.0000 0.15165  0.89488  0.45678  Biso   1.000  C
  H782     1.0000 0.14373  0.90207  0.46987  Biso   1.000  H
  C955     1.0000 0.16512  0.86759  0.45757  Biso   1.000  C
  C956     1.0000 0.17921  0.85998  0.43813  Biso   1.000  C
  H783     1.0000 0.18923  0.84257  0.43877  Biso   1.000  H
  C957     1.0000 0.16699  0.84939  0.47897  Biso   1.000  C
  O253     1.0000 0.45866  0.00279  0.28617  Biso   1.000  O
  O254     1.0000 0.44148  0.95635  0.31039  Biso   1.000  O
  O255     1.0000 0.29097  0.89925  0.31623  Biso   1.000  O
  O256     1.0000 0.19133  0.86938  0.39844  Biso   1.000  O
  O257     1.0000 0.17972  0.82531  0.47800  Biso   1.000  O
  O258     1.0000 0.15615  0.85881  0.49638  Biso   1.000  O
  O259     1.0000 0.14252  0.73050  0.32993  Biso   1.000  O
  O260     1.0000 0.08459  0.58280  0.32561  Biso   1.000  O
  O261     1.0000 0.02608  0.56263  0.30995  Biso   1.000  O
  C958     1.0000 0.12495  0.36045  0.53683  Biso   1.000  C
  C959     1.0000 0.09487  0.37136  0.54039  Biso   1.000  C
  C960     1.0000 0.06310  0.34836  0.55476  Biso   1.000  C
  H784     1.0000 0.06353  0.32867  0.56357  Biso   1.000  H
  C961     1.0000 0.03080  0.35474  0.55592  Biso   1.000  C
  H785     1.0000 0.00953  0.33937  0.56557  Biso   1.000  H
  C962     1.0000 0.03027  0.38420  0.54262  Biso   1.000  C
  H786     1.0000 0.00863  0.38847  0.54337  Biso   1.000  H
  C963     1.0000 0.06192  0.40706  0.52829  Biso   1.000  C
  C964     1.0000 0.09426  0.40081  0.52713  Biso   1.000  C
  H787     1.0000 0.11553  0.41627  0.51757  Biso   1.000  H
  C965     1.0000 0.08892  0.46015  0.50184  Biso   1.000  C
  H788     1.0000 0.11373  0.47697  0.50987  Biso   1.000  H
  H789     1.0000 0.09373  0.44487  0.49057  Biso   1.000  H
  C966     1.0000 0.07325  0.48578  0.49071  Biso   1.000  C
  C967     1.0000 0.07189  0.51531  0.50311  Biso   1.000  C
  C968     1.0000 0.05338  0.53403  0.49363  Biso   1.000  C
  C969     1.0000 0.04071  0.52784  0.47175  Biso   1.000  C
  C970     1.0000 0.04420  0.49948  0.45938  Biso   1.000  C
  C971     1.0000 0.05922  0.47601  0.46932  Biso   1.000  C
  C972     1.0000 0.05843  0.44224  0.45648  Biso   1.000  C
  H790     1.0000 0.05213  0.42037  0.46657  Biso   1.000  H
  H791     1.0000 0.03853  0.43357  0.44487  Biso   1.000  H
  H792     1.0000 0.08413  0.45107  0.44977  Biso   1.000  H
  C973     1.0000 0.08961  0.52695  0.52644  Biso   1.000  C
  H793     1.0000 0.11603  0.53057  0.52647  Biso   1.000  H
  H794     1.0000 0.09083  0.55147  0.53077  Biso   1.000  H
  H795     1.0000 0.07313  0.50627  0.53687  Biso   1.000  H
  C974     1.0000 0.02269  0.55039  0.46152  Biso   1.000  C
  H796     1.0000 0.03093  0.57457  0.46987  Biso   1.000  H
  H797     1.0000 0.03143  0.55687  0.44617  Biso   1.000  H
  H798     1.0000 0.99403  0.53427  0.46187  Biso   1.000  H
  C975     1.0000 0.04591  0.56254  0.50729  Biso   1.000  C
  H799     1.0000 0.04433  0.55597  0.52317  Biso   1.000  H
  H800     1.0000 0.02083  0.56057  0.50277  Biso   1.000  H
  C976     1.0000 0.07512  0.63258  0.51396  Biso   1.000  C
  C977     1.0000 0.04291  0.62526  0.52751  Biso   1.000  C
  H801     1.0000 0.02283  0.59907  0.53037  Biso   1.000  H
  C978     1.0000 0.04074  0.65626  0.53665  Biso   1.000  C
  H802     1.0000 0.01833  0.65137  0.54497  Biso   1.000  H
  C979     1.0000 0.07147  0.69511  0.53369  Biso   1.000  C
  H803     1.0000 0.07073  0.71627  0.54067  Biso   1.000  H
  C980     1.0000 0.10419  0.70200  0.51987  Biso   1.000  C
  C981     1.0000 0.10532  0.67034  0.51034  Biso   1.000  C
  H804     1.0000 0.12693  0.67477  0.50137  Biso   1.000  H
  C982     1.0000 0.13696  0.74391  0.51603  Biso   1.000  C
  C983     1.0000 0.02968  0.49079  0.43555  Biso   1.000  C
  H805     1.0000 0.04363  0.47957  0.42757  Biso   1.000  H
  H806     1.0000 0.03543  0.51547  0.42807  Biso   1.000  H
  C984     1.0000 0.96925  0.45678  0.41531  Biso   1.000  C
  C985     1.0000 0.92739  0.43014  0.41605  Biso   1.000  C
  H807     1.0000 0.91513  0.41837  0.42967  Biso   1.000  H
  C986     1.0000 0.90525  0.42180  0.39723  Biso   1.000  C
  H808     1.0000 0.87773  0.40487  0.39797  Biso   1.000  H
  C987     1.0000 0.92344  0.43846  0.37656  Biso   1.000  C
  H809     1.0000 0.90833  0.43127  0.36347  Biso   1.000  H
  C988     1.0000 0.96420  0.46575  0.37577  Biso   1.000  C
  C989     1.0000 0.98590  0.47336  0.39521  Biso   1.000  C
  H810     1.0000 0.01333  0.49077  0.39457  Biso   1.000  H
  C990     1.0000 0.98427  0.48395  0.35437  Biso   1.000  C
  O262     1.0000 0.12254  0.33055  0.54717  Biso   1.000  O
  O263     1.0000 0.15180  0.37699  0.52295  Biso   1.000  O
  O264     1.0000 0.05839  0.43409  0.51711  Biso   1.000  O
  O265     1.0000 0.98862  0.46396  0.43490  Biso   1.000  O
  O266     1.0000 0.02108  0.50803  0.35534  Biso   1.000  O
  O267     1.0000 0.96401  0.47453  0.33696  Biso   1.000  O
  O268     1.0000 0.07869  0.60284  0.50341  Biso   1.000  O
  O269     1.0000 0.16846  0.75054  0.50773  Biso   1.000  O
  O270     1.0000 0.13012  0.77071  0.52339  Biso   1.000  O
  Co59     1.0000 0.15582  0.83125  0.52765  Biso   1.000  Co
  Co60     1.0000 0.21843  0.80658  0.49526  Biso   1.000  Co
  C991     1.0000 0.20838  0.90216  0.62984  Biso   1.000  C
  C992     1.0000 0.23846  0.94315  0.62628  Biso   1.000  C
  C993     1.0000 0.27023  0.95192  0.61191  Biso   1.000  C
  H811     1.0000 0.26980  0.93180  0.60310  Biso   1.000  H
  C994     1.0000 0.30253  0.99060  0.61075  Biso   1.000  C
  H812     1.0000 0.32380  0.99650  0.60110  Biso   1.000  H
  C995     1.0000 0.30306  0.02059  0.62405  Biso   1.000  C
  H813     1.0000 0.32470  0.04650  0.62330  Biso   1.000  H
  C996     1.0000 0.27141  0.01180  0.63838  Biso   1.000  C
  C997     1.0000 0.23907  0.97321  0.63954  Biso   1.000  C
  H814     1.0000 0.21780  0.96740  0.64910  Biso   1.000  H
  C998     1.0000 0.24441  0.03789  0.66483  Biso   1.000  C
  H815     1.0000 0.21960  0.02990  0.65680  Biso   1.000  H
  H816     1.0000 0.23960  0.01780  0.67610  Biso   1.000  H
  C999     1.0000 0.26008  0.07919  0.67596  Biso   1.000  C
  C1000    1.0000 0.26144  0.11008  0.66356  Biso   1.000  C
  C1001    1.0000 0.27995  0.14731  0.67304  Biso   1.000  C
  C1002    1.0000 0.29262  0.15379  0.69492  Biso   1.000  C
  C1003    1.0000 0.28913  0.12194  0.70729  Biso   1.000  C
  C1004    1.0000 0.27411  0.08345  0.69735  Biso   1.000  C
  C1005    1.0000 0.27490  0.05047  0.71019  Biso   1.000  C
  H817     1.0000 0.28120  0.03490  0.70010  Biso   1.000  H
  H818     1.0000 0.29480  0.06170  0.72180  Biso   1.000  H
  H819     1.0000 0.24920  0.03360  0.71690  Biso   1.000  H
  C1006    1.0000 0.24372  0.10400  0.64023  Biso   1.000  C
  H820     1.0000 0.21730  0.08120  0.64020  Biso   1.000  H
  H821     1.0000 0.24250  0.12730  0.63590  Biso   1.000  H
  H822     1.0000 0.26020  0.09980  0.62980  Biso   1.000  H
  C1007    1.0000 0.31064  0.19436  0.70515  Biso   1.000  C
  H823     1.0000 0.30240  0.21030  0.69680  Biso   1.000  H
  H824     1.0000 0.30190  0.19210  0.72050  Biso   1.000  H
  H825     1.0000 0.33930  0.20690  0.70480  Biso   1.000  H
  C1008    1.0000 0.28742  0.18329  0.65938  Biso   1.000  C
  H826     1.0000 0.28900  0.17830  0.64350  Biso   1.000  H
  H827     1.0000 0.31250  0.20640  0.66390  Biso   1.000  H
  C1009    1.0000 0.25821  0.22412  0.65271  Biso   1.000  C
  C1010    1.0000 0.29042  0.24901  0.63916  Biso   1.000  C
  H828     1.0000 0.31050  0.24290  0.63630  Biso   1.000  H
  C1011    1.0000 0.29259  0.28218  0.63002  Biso   1.000  C
  H829     1.0000 0.31500  0.29970  0.62170  Biso   1.000  H
  C1012    1.0000 0.26186  0.29030  0.63298  Biso   1.000  C
  H830     1.0000 0.26260  0.31220  0.62600  Biso   1.000  H
  C1013    1.0000 0.22914  0.26447  0.64680  Biso   1.000  C
  C1014    1.0000 0.22801  0.23168  0.65633  Biso   1.000  C
  H831     1.0000 0.20640  0.21450  0.66530  Biso   1.000  H
  C1015    1.0000 0.19637  0.27361  0.65064  Biso   1.000  C
  C1016    1.0000 0.30365  0.12777  0.73112  Biso   1.000  C
  H832     1.0000 0.28970  0.10260  0.73910  Biso   1.000  H
  H833     1.0000 0.29790  0.14670  0.73860  Biso   1.000  H
  C1017    1.0000 0.36408  0.15419  0.75136  Biso   1.000  C
  C1018    1.0000 0.40594  0.16941  0.75062  Biso   1.000  C
  H834     1.0000 0.41820  0.16990  0.73700  Biso   1.000  H
  C1019    1.0000 0.42808  0.18321  0.76944  Biso   1.000  C
  H835     1.0000 0.45560  0.19380  0.76870  Biso   1.000  H
  C1020    1.0000 0.40989  0.18168  0.79011  Biso   1.000  C
  H836     1.0000 0.42500  0.18960  0.80320  Biso   1.000  H
  C1021    1.0000 0.36913  0.16821  0.79090  Biso   1.000  C
  C1022    1.0000 0.34743  0.15412  0.77146  Biso   1.000  C
  H837     1.0000 0.32000  0.14410  0.77210  Biso   1.000  H
  C1023    1.0000 0.34906  0.16634  0.81230  Biso   1.000  C
  O271     1.0000 0.21079  0.87467  0.61950  Biso   1.000  O
  O272     1.0000 0.18153  0.89185  0.64372  Biso   1.000  O
  O273     1.0000 0.27494  0.04236  0.64956  Biso   1.000  O
  O274     1.0000 0.34471  0.14200  0.73177  Biso   1.000  O
  O275     1.0000 0.31225  0.15361  0.81133  Biso   1.000  O
  O276     1.0000 0.36932  0.17718  0.82971  Biso   1.000  O
  O277     1.0000 0.25464  0.19081  0.66326  Biso   1.000  O
  O278     1.0000 0.16487  0.24874  0.65894  Biso   1.000  O
  O279     1.0000 0.20321  0.30725  0.64328  Biso   1.000  O
  Co61     1.0000 0.17751  0.34209  0.63901  Biso   1.000  Co
  Co62     1.0000 0.11490  0.25482  0.67140  Biso   1.000  Co
  C1024    1.0000 0.90216  0.20838  0.87016  Biso   1.000  C
  C1025    1.0000 0.94315  0.23846  0.87372  Biso   1.000  C
  C1026    1.0000 0.95192  0.27023  0.88809  Biso   1.000  C
  H838     1.0000 0.93180  0.26980  0.89690  Biso   1.000  H
  C1027    1.0000 0.99060  0.30253  0.88925  Biso   1.000  C
  H839     1.0000 0.99650  0.32380  0.89890  Biso   1.000  H
  C1028    1.0000 0.02059  0.30306  0.87595  Biso   1.000  C
  H840     1.0000 0.04650  0.32470  0.87670  Biso   1.000  H
  C1029    1.0000 0.01180  0.27141  0.86162  Biso   1.000  C
  C1030    1.0000 0.97321  0.23907  0.86046  Biso   1.000  C
  H841     1.0000 0.96740  0.21780  0.85090  Biso   1.000  H
  C1031    1.0000 0.03789  0.24441  0.83517  Biso   1.000  C
  H842     1.0000 0.02990  0.21960  0.84320  Biso   1.000  H
  H843     1.0000 0.01780  0.23960  0.82390  Biso   1.000  H
  C1032    1.0000 0.07919  0.26008  0.82404  Biso   1.000  C
  C1033    1.0000 0.11008  0.26144  0.83644  Biso   1.000  C
  C1034    1.0000 0.14731  0.27995  0.82696  Biso   1.000  C
  C1035    1.0000 0.15379  0.29262  0.80508  Biso   1.000  C
  C1036    1.0000 0.12194  0.28913  0.79271  Biso   1.000  C
  C1037    1.0000 0.08345  0.27411  0.80265  Biso   1.000  C
  C1038    1.0000 0.05047  0.27490  0.78981  Biso   1.000  C
  H844     1.0000 0.03490  0.28120  0.79990  Biso   1.000  H
  H845     1.0000 0.06170  0.29480  0.77820  Biso   1.000  H
  H846     1.0000 0.03360  0.24920  0.78310  Biso   1.000  H
  C1039    1.0000 0.10400  0.24372  0.85977  Biso   1.000  C
  H847     1.0000 0.08120  0.21730  0.85980  Biso   1.000  H
  H848     1.0000 0.12730  0.24250  0.86410  Biso   1.000  H
  H849     1.0000 0.09980  0.26020  0.87020  Biso   1.000  H
  C1040    1.0000 0.19436  0.31064  0.79485  Biso   1.000  C
  H850     1.0000 0.21030  0.30240  0.80320  Biso   1.000  H
  H851     1.0000 0.19210  0.30190  0.77950  Biso   1.000  H
  H852     1.0000 0.20690  0.33930  0.79520  Biso   1.000  H
  C1041    1.0000 0.18329  0.28742  0.84062  Biso   1.000  C
  H853     1.0000 0.17830  0.28900  0.85650  Biso   1.000  H
  H854     1.0000 0.20640  0.31250  0.83610  Biso   1.000  H
  C1042    1.0000 0.22412  0.25821  0.84729  Biso   1.000  C
  C1043    1.0000 0.24901  0.29042  0.86084  Biso   1.000  C
  H855     1.0000 0.24290  0.31050  0.86370  Biso   1.000  H
  C1044    1.0000 0.28218  0.29259  0.86998  Biso   1.000  C
  H856     1.0000 0.29970  0.31500  0.87830  Biso   1.000  H
  C1045    1.0000 0.29030  0.26186  0.86702  Biso   1.000  C
  H857     1.0000 0.31220  0.26260  0.87400  Biso   1.000  H
  C1046    1.0000 0.26447  0.22914  0.85320  Biso   1.000  C
  C1047    1.0000 0.23168  0.22801  0.84367  Biso   1.000  C
  H858     1.0000 0.21450  0.20640  0.83470  Biso   1.000  H
  C1048    1.0000 0.27361  0.19637  0.84936  Biso   1.000  C
  C1049    1.0000 0.12777  0.30365  0.76888  Biso   1.000  C
  H859     1.0000 0.10260  0.28970  0.76090  Biso   1.000  H
  H860     1.0000 0.14670  0.29790  0.76140  Biso   1.000  H
  C1050    1.0000 0.15419  0.36408  0.74864  Biso   1.000  C
  C1051    1.0000 0.16941  0.40594  0.74938  Biso   1.000  C
  H861     1.0000 0.16990  0.41820  0.76300  Biso   1.000  H
  C1052    1.0000 0.18321  0.42808  0.73056  Biso   1.000  C
  H862     1.0000 0.19380  0.45560  0.73130  Biso   1.000  H
  C1053    1.0000 0.18168  0.40989  0.70989  Biso   1.000  C
  H863     1.0000 0.18960  0.42500  0.69680  Biso   1.000  H
  C1054    1.0000 0.16821  0.36913  0.70910  Biso   1.000  C
  C1055    1.0000 0.15412  0.34743  0.72854  Biso   1.000  C
  H864     1.0000 0.14410  0.32000  0.72790  Biso   1.000  H
  C1056    1.0000 0.16634  0.34906  0.68770  Biso   1.000  C
  O280     1.0000 0.87467  0.21079  0.88050  Biso   1.000  O
  O281     1.0000 0.89185  0.18153  0.85628  Biso   1.000  O
  O282     1.0000 0.04236  0.27494  0.85044  Biso   1.000  O
  O283     1.0000 0.14200  0.34471  0.76823  Biso   1.000  O
  O284     1.0000 0.15361  0.31225  0.68867  Biso   1.000  O
  O285     1.0000 0.17718  0.36932  0.67029  Biso   1.000  O
  O286     1.0000 0.19081  0.25464  0.83674  Biso   1.000  O
  O287     1.0000 0.24874  0.16487  0.84106  Biso   1.000  O
  O288     1.0000 0.30725  0.20321  0.85672  Biso   1.000  O
  Co63     1.0000 0.34209  0.17751  0.86099  Biso   1.000  Co
  Co64     1.0000 0.25482  0.11490  0.82860  Biso   1.000  Co
  C1057    1.0000 0.87505  0.23549  0.96317  Biso   1.000  C
  C1058    1.0000 0.90513  0.27648  0.95961  Biso   1.000  C
  C1059    1.0000 0.93690  0.28525  0.94524  Biso   1.000  C
  H865     1.0000 0.93647  0.26513  0.93643  Biso   1.000  H
  C1060    1.0000 0.96920  0.32393  0.94408  Biso   1.000  C
  H866     1.0000 0.99047  0.32983  0.93443  Biso   1.000  H
  C1061    1.0000 0.96973  0.35392  0.95738  Biso   1.000  C
  H867     1.0000 0.99137  0.37983  0.95663  Biso   1.000  H
  C1062    1.0000 0.93808  0.34513  0.97171  Biso   1.000  C
  C1063    1.0000 0.90574  0.30654  0.97287  Biso   1.000  C
  H868     1.0000 0.88447  0.30073  0.98243  Biso   1.000  H
  C1064    1.0000 0.91108  0.37122  0.99816  Biso   1.000  C
  H869     1.0000 0.88627  0.36323  0.99013  Biso   1.000  H
  H870     1.0000 0.90627  0.35113  0.00943  Biso   1.000  H
  C1065    1.0000 0.92675  0.41252  0.00929  Biso   1.000  C
  C1066    1.0000 0.92811  0.44341  0.99689  Biso   1.000  C
  C1067    1.0000 0.94662  0.48064  0.00637  Biso   1.000  C
  C1068    1.0000 0.95929  0.48712  0.02825  Biso   1.000  C
  C1069    1.0000 0.95580  0.45527  0.04062  Biso   1.000  C
  C1070    1.0000 0.94078  0.41678  0.03068  Biso   1.000  C
  C1071    1.0000 0.94157  0.38380  0.04352  Biso   1.000  C
  H871     1.0000 0.94787  0.36823  0.03343  Biso   1.000  H
  H872     1.0000 0.96147  0.39503  0.05513  Biso   1.000  H
  H873     1.0000 0.91587  0.36693  0.05023  Biso   1.000  H
  C1072    1.0000 0.91039  0.43733  0.97356  Biso   1.000  C
  H874     1.0000 0.88397  0.41453  0.97353  Biso   1.000  H
  H875     1.0000 0.90917  0.46063  0.96923  Biso   1.000  H
  H876     1.0000 0.92687  0.43313  0.96313  Biso   1.000  H
  C1073    1.0000 0.97731  0.52769  0.03848  Biso   1.000  C
  H877     1.0000 0.96907  0.54363  0.03013  Biso   1.000  H
  H878     1.0000 0.96857  0.52543  0.05383  Biso   1.000  H
  H879     1.0000 0.00597  0.54023  0.03813  Biso   1.000  H
  C1074    1.0000 0.95409  0.51662  0.99271  Biso   1.000  C
  H880     1.0000 0.95567  0.51163  0.97683  Biso   1.000  H
  H881     1.0000 0.97917  0.53973  0.99723  Biso   1.000  H
  C1075    1.0000 0.92488  0.55745  0.98604  Biso   1.000  C
  C1076    1.0000 0.95709  0.58234  0.97249  Biso   1.000  C
  H882     1.0000 0.97717  0.57623  0.96963  Biso   1.000  H
  C1077    1.0000 0.95926  0.61551  0.96335  Biso   1.000  C
  H883     1.0000 0.98167  0.63303  0.95503  Biso   1.000  H
  C1078    1.0000 0.92853  0.62363  0.96631  Biso   1.000  C
  H884     1.0000 0.92927  0.64553  0.95933  Biso   1.000  H
  C1079    1.0000 0.89581  0.59780  0.98013  Biso   1.000  C
  C1080    1.0000 0.89468  0.56501  0.98966  Biso   1.000  C
  H885     1.0000 0.87307  0.54783  0.99863  Biso   1.000  H
  C1081    1.0000 0.86304  0.60694  0.98397  Biso   1.000  C
  C1082    1.0000 0.97032  0.46110  0.06445  Biso   1.000  C
  H886     1.0000 0.95637  0.43593  0.07243  Biso   1.000  H
  H887     1.0000 0.96457  0.48003  0.07193  Biso   1.000  H
  C1083    1.0000 0.03075  0.48752  0.08469  Biso   1.000  C
  C1084    1.0000 0.07261  0.50274  0.08395  Biso   1.000  C
  H888     1.0000 0.08487  0.50323  0.07033  Biso   1.000  H
  C1085    1.0000 0.09475  0.51654  0.10277  Biso   1.000  C
  H889     1.0000 0.12227  0.52713  0.10203  Biso   1.000  H
  C1086    1.0000 0.07656  0.51501  0.12344  Biso   1.000  C
  H890     1.0000 0.09167  0.52293  0.13653  Biso   1.000  H
  C1087    1.0000 0.03580  0.50154  0.12423  Biso   1.000  C
  C1088    1.0000 0.01410  0.48745  0.10479  Biso   1.000  C
  H891     1.0000 0.98667  0.47743  0.10543  Biso   1.000  H
  C1089    1.0000 0.01573  0.49967  0.14563  Biso   1.000  C
  O289     1.0000 0.87746  0.20800  0.95283  Biso   1.000  O
  O290     1.0000 0.84820  0.22518  0.97705  Biso   1.000  O
  O291     1.0000 0.94161  0.37569  0.98289  Biso   1.000  O
  O292     1.0000 0.01138  0.47533  0.06510  Biso   1.000  O
  O293     1.0000 0.97892  0.48694  0.14466  Biso   1.000  O
  O294     1.0000 0.03599  0.51051  0.16304  Biso   1.000  O
  O295     1.0000 0.92131  0.52414  0.99659  Biso   1.000  O
  O296     1.0000 0.83154  0.58207  0.99227  Biso   1.000  O
  O297     1.0000 0.86988  0.64058  0.97661  Biso   1.000  O
  Co65     1.0000 0.84418  0.67543  0.97235  Biso   1.000  Co
  Co66     1.0000 0.78157  0.58815  0.00474  Biso   1.000  Co
  C1090    1.0000 0.56883  0.54171  0.20349  Biso   1.000  C
  C1091    1.0000 0.60982  0.57179  0.20705  Biso   1.000  C
  C1092    1.0000 0.61859  0.60356  0.22142  Biso   1.000  C
  H892     1.0000 0.59847  0.60313  0.23023  Biso   1.000  H
  C1093    1.0000 0.65727  0.63586  0.22258  Biso   1.000  C
  H893     1.0000 0.66317  0.65713  0.23223  Biso   1.000  H
  C1094    1.0000 0.68726  0.63639  0.20928  Biso   1.000  C
  H894     1.0000 0.71317  0.65803  0.21003  Biso   1.000  H
  C1095    1.0000 0.67847  0.60474  0.19495  Biso   1.000  C
  C1096    1.0000 0.63988  0.57240  0.19379  Biso   1.000  C
  H895     1.0000 0.63407  0.55113  0.18423  Biso   1.000  H
  C1097    1.0000 0.70456  0.57774  0.16850  Biso   1.000  C
  H896     1.0000 0.69657  0.55293  0.17653  Biso   1.000  H
  H897     1.0000 0.68447  0.57293  0.15723  Biso   1.000  H
  C1098    1.0000 0.74586  0.59341  0.15737  Biso   1.000  C
  C1099    1.0000 0.77675  0.59477  0.16977  Biso   1.000  C
  C1100    1.0000 0.81398  0.61328  0.16029  Biso   1.000  C
  C1101    1.0000 0.82046  0.62595  0.13841  Biso   1.000  C
  C1102    1.0000 0.78861  0.62246  0.12604  Biso   1.000  C
  C1103    1.0000 0.75012  0.60744  0.13598  Biso   1.000  C
  C1104    1.0000 0.71714  0.60823  0.12314  Biso   1.000  C
  H898     1.0000 0.70157  0.61453  0.13323  Biso   1.000  H
  H899     1.0000 0.72837  0.62813  0.11153  Biso   1.000  H
  H900     1.0000 0.70027  0.58253  0.11643  Biso   1.000  H
  C1105    1.0000 0.77067  0.57705  0.19310  Biso   1.000  C
  H901     1.0000 0.74787  0.55063  0.19313  Biso   1.000  H
  H902     1.0000 0.79397  0.57583  0.19743  Biso   1.000  H
  H903     1.0000 0.76647  0.59353  0.20353  Biso   1.000  H
  C1106    1.0000 0.86103  0.64397  0.12818  Biso   1.000  C
  H904     1.0000 0.87697  0.63573  0.13653  Biso   1.000  H
  H905     1.0000 0.85877  0.63523  0.11283  Biso   1.000  H
  H906     1.0000 0.87357  0.67263  0.12853  Biso   1.000  H
  C1107    1.0000 0.84996  0.62075  0.17395  Biso   1.000  C
  H907     1.0000 0.84497  0.62233  0.18983  Biso   1.000  H
  H908     1.0000 0.87307  0.64583  0.16943  Biso   1.000  H
  C1108    1.0000 0.89079  0.59154  0.18062  Biso   1.000  C
  C1109    1.0000 0.91568  0.62375  0.19417  Biso   1.000  C
  H909     1.0000 0.90957  0.64383  0.19703  Biso   1.000  H
  C1110    1.0000 0.94885  0.62592  0.20331  Biso   1.000  C
  H910     1.0000 0.96637  0.64833  0.21163  Biso   1.000  H
  C1111    1.0000 0.95697  0.59519  0.20035  Biso   1.000  C
  H911     1.0000 0.97887  0.59593  0.20733  Biso   1.000  H
  C1112    1.0000 0.93114  0.56247  0.18653  Biso   1.000  C
  C1113    1.0000 0.89835  0.56134  0.17700  Biso   1.000  C
  H912     1.0000 0.88117  0.53973  0.16803  Biso   1.000  H
  C1114    1.0000 0.94028  0.52970  0.18269  Biso   1.000  C
  C1115    1.0000 0.79444  0.63698  0.10221  Biso   1.000  C
  H913     1.0000 0.76927  0.62303  0.09423  Biso   1.000  H
  H914     1.0000 0.81337  0.63123  0.09473  Biso   1.000  H
  C1116    1.0000 0.82086  0.69741  0.08197  Biso   1.000  C
  C1117    1.0000 0.83608  0.73927  0.08271  Biso   1.000  C
  H915     1.0000 0.83657  0.75153  0.09633  Biso   1.000  H
  C1118    1.0000 0.84988  0.76141  0.06389  Biso   1.000  C
  H916     1.0000 0.86047  0.78893  0.06463  Biso   1.000  H
  C1119    1.0000 0.84835  0.74322  0.04322  Biso   1.000  C
  H917     1.0000 0.85627  0.75833  0.03013  Biso   1.000  H
  C1120    1.0000 0.83488  0.70246  0.04243  Biso   1.000  C
  C1121    1.0000 0.82079  0.68076  0.06187  Biso   1.000  C
  H918     1.0000 0.81077  0.65333  0.06123  Biso   1.000  H
  C1122    1.0000 0.83301  0.68239  0.02103  Biso   1.000  C
  O298     1.0000 0.54134  0.54412  0.21383  Biso   1.000  O
  O299     1.0000 0.55852  0.51486  0.18961  Biso   1.000  O
  O300     1.0000 0.70903  0.60827  0.18377  Biso   1.000  O
  O301     1.0000 0.80867  0.67804  0.10156  Biso   1.000  O
  O302     1.0000 0.82028  0.64558  0.02200  Biso   1.000  O
  O303     1.0000 0.84385  0.70265  0.00362  Biso   1.000  O
  O304     1.0000 0.85748  0.58797  0.17007  Biso   1.000  O
  O305     1.0000 0.91541  0.49820  0.17439  Biso   1.000  O
  O306     1.0000 0.97392  0.53654  0.19005  Biso   1.000  O
  Co67     1.0000 0.00876  0.51084  0.19432  Biso   1.000  Co
  Co68     1.0000 0.92148  0.44824  0.16193  Biso   1.000  Co
  C1123    1.0000 0.54171  0.56883  0.29651  Biso   1.000  C
  C1124    1.0000 0.57179  0.60982  0.29295  Biso   1.000  C
  C1125    1.0000 0.60356  0.61859  0.27858  Biso   1.000  C
  H919     1.0000 0.60313  0.59847  0.26977  Biso   1.000  H
  C1126    1.0000 0.63586  0.65727  0.27742  Biso   1.000  C
  H920     1.0000 0.65713  0.66317  0.26777  Biso   1.000  H
  C1127    1.0000 0.63639  0.68726  0.29072  Biso   1.000  C
  H921     1.0000 0.65803  0.71317  0.28997  Biso   1.000  H
  C1128    1.0000 0.60474  0.67847  0.30505  Biso   1.000  C
  C1129    1.0000 0.57240  0.63988  0.30621  Biso   1.000  C
  H922     1.0000 0.55113  0.63407  0.31577  Biso   1.000  H
  C1130    1.0000 0.57774  0.70456  0.33150  Biso   1.000  C
  H923     1.0000 0.55293  0.69657  0.32347  Biso   1.000  H
  H924     1.0000 0.57293  0.68447  0.34277  Biso   1.000  H
  C1131    1.0000 0.59341  0.74586  0.34263  Biso   1.000  C
  C1132    1.0000 0.59477  0.77675  0.33023  Biso   1.000  C
  C1133    1.0000 0.61328  0.81398  0.33971  Biso   1.000  C
  C1134    1.0000 0.62595  0.82046  0.36159  Biso   1.000  C
  C1135    1.0000 0.62246  0.78861  0.37396  Biso   1.000  C
  C1136    1.0000 0.60744  0.75012  0.36402  Biso   1.000  C
  C1137    1.0000 0.60823  0.71714  0.37686  Biso   1.000  C
  H925     1.0000 0.61453  0.70157  0.36677  Biso   1.000  H
  H926     1.0000 0.62813  0.72837  0.38847  Biso   1.000  H
  H927     1.0000 0.58253  0.70027  0.38357  Biso   1.000  H
  C1138    1.0000 0.57705  0.77067  0.30690  Biso   1.000  C
  H928     1.0000 0.55063  0.74787  0.30687  Biso   1.000  H
  H929     1.0000 0.57583  0.79397  0.30257  Biso   1.000  H
  H930     1.0000 0.59353  0.76647  0.29647  Biso   1.000  H
  C1139    1.0000 0.64397  0.86103  0.37182  Biso   1.000  C
  H931     1.0000 0.63573  0.87697  0.36347  Biso   1.000  H
  H932     1.0000 0.63523  0.85877  0.38717  Biso   1.000  H
  H933     1.0000 0.67263  0.87357  0.37147  Biso   1.000  H
  C1140    1.0000 0.62075  0.84996  0.32605  Biso   1.000  C
  H934     1.0000 0.62233  0.84497  0.31017  Biso   1.000  H
  H935     1.0000 0.64583  0.87307  0.33057  Biso   1.000  H
  C1141    1.0000 0.59154  0.89079  0.31938  Biso   1.000  C
  C1142    1.0000 0.62375  0.91568  0.30583  Biso   1.000  C
  H936     1.0000 0.64383  0.90957  0.30297  Biso   1.000  H
  C1143    1.0000 0.62592  0.94885  0.29669  Biso   1.000  C
  H937     1.0000 0.64833  0.96637  0.28837  Biso   1.000  H
  C1144    1.0000 0.59519  0.95697  0.29965  Biso   1.000  C
  H938     1.0000 0.59593  0.97887  0.29267  Biso   1.000  H
  C1145    1.0000 0.56247  0.93114  0.31347  Biso   1.000  C
  C1146    1.0000 0.56134  0.89835  0.32300  Biso   1.000  C
  H939     1.0000 0.53973  0.88117  0.33197  Biso   1.000  H
  C1147    1.0000 0.52970  0.94028  0.31731  Biso   1.000  C
  C1148    1.0000 0.63698  0.79444  0.39779  Biso   1.000  C
  H940     1.0000 0.62303  0.76927  0.40577  Biso   1.000  H
  H941     1.0000 0.63123  0.81337  0.40527  Biso   1.000  H
  C1149    1.0000 0.69741  0.82086  0.41803  Biso   1.000  C
  C1150    1.0000 0.73927  0.83608  0.41729  Biso   1.000  C
  H942     1.0000 0.75153  0.83657  0.40367  Biso   1.000  H
  C1151    1.0000 0.76141  0.84988  0.43611  Biso   1.000  C
  H943     1.0000 0.78893  0.86047  0.43537  Biso   1.000  H
  C1152    1.0000 0.74322  0.84835  0.45678  Biso   1.000  C
  H944     1.0000 0.75833  0.85627  0.46987  Biso   1.000  H
  C1153    1.0000 0.70246  0.83488  0.45757  Biso   1.000  C
  C1154    1.0000 0.68076  0.82079  0.43813  Biso   1.000  C
  H945     1.0000 0.65333  0.81077  0.43877  Biso   1.000  H
  C1155    1.0000 0.68239  0.83301  0.47897  Biso   1.000  C
  O307     1.0000 0.54412  0.54134  0.28617  Biso   1.000  O
  O308     1.0000 0.51486  0.55852  0.31039  Biso   1.000  O
  O309     1.0000 0.60827  0.70903  0.31623  Biso   1.000  O
  O310     1.0000 0.67804  0.80867  0.39844  Biso   1.000  O
  O311     1.0000 0.64558  0.82028  0.47800  Biso   1.000  O
  O312     1.0000 0.70265  0.84385  0.49638  Biso   1.000  O
  O313     1.0000 0.58797  0.85748  0.32993  Biso   1.000  O
  O314     1.0000 0.49820  0.91541  0.32561  Biso   1.000  O
  O315     1.0000 0.53654  0.97392  0.30995  Biso   1.000  O
  Co69     1.0000 0.51084  0.00876  0.30568  Biso   1.000  Co
  Co70     1.0000 0.44824  0.92148  0.33807  Biso   1.000  Co
  C1156    1.0000 0.23549  0.87505  0.53683  Biso   1.000  C
  C1157    1.0000 0.27648  0.90513  0.54039  Biso   1.000  C
  C1158    1.0000 0.28525  0.93690  0.55476  Biso   1.000  C
  H946     1.0000 0.26513  0.93647  0.56357  Biso   1.000  H
  C1159    1.0000 0.32393  0.96920  0.55592  Biso   1.000  C
  H947     1.0000 0.32983  0.99047  0.56557  Biso   1.000  H
  C1160    1.0000 0.35392  0.96973  0.54262  Biso   1.000  C
  H948     1.0000 0.37983  0.99137  0.54337  Biso   1.000  H
  C1161    1.0000 0.34513  0.93808  0.52829  Biso   1.000  C
  C1162    1.0000 0.30654  0.90574  0.52713  Biso   1.000  C
  H949     1.0000 0.30073  0.88447  0.51757  Biso   1.000  H
  C1163    1.0000 0.37122  0.91108  0.50184  Biso   1.000  C
  H950     1.0000 0.36323  0.88627  0.50987  Biso   1.000  H
  H951     1.0000 0.35113  0.90627  0.49057  Biso   1.000  H
  C1164    1.0000 0.41252  0.92675  0.49071  Biso   1.000  C
  C1165    1.0000 0.44341  0.92811  0.50311  Biso   1.000  C
  C1166    1.0000 0.48064  0.94662  0.49363  Biso   1.000  C
  C1167    1.0000 0.48712  0.95929  0.47175  Biso   1.000  C
  C1168    1.0000 0.45527  0.95580  0.45938  Biso   1.000  C
  C1169    1.0000 0.41678  0.94078  0.46932  Biso   1.000  C
  C1170    1.0000 0.38380  0.94157  0.45648  Biso   1.000  C
  H952     1.0000 0.36823  0.94787  0.46657  Biso   1.000  H
  H953     1.0000 0.39503  0.96147  0.44487  Biso   1.000  H
  H954     1.0000 0.36693  0.91587  0.44977  Biso   1.000  H
  C1171    1.0000 0.43733  0.91039  0.52644  Biso   1.000  C
  H955     1.0000 0.41453  0.88397  0.52647  Biso   1.000  H
  H956     1.0000 0.46063  0.90917  0.53077  Biso   1.000  H
  H957     1.0000 0.43313  0.92687  0.53687  Biso   1.000  H
  C1172    1.0000 0.52769  0.97731  0.46152  Biso   1.000  C
  H958     1.0000 0.54363  0.96907  0.46987  Biso   1.000  H
  H959     1.0000 0.52543  0.96857  0.44617  Biso   1.000  H
  H960     1.0000 0.54023  0.00597  0.46187  Biso   1.000  H
  C1173    1.0000 0.51662  0.95409  0.50729  Biso   1.000  C
  H961     1.0000 0.51163  0.95567  0.52317  Biso   1.000  H
  H962     1.0000 0.53973  0.97917  0.50277  Biso   1.000  H
  C1174    1.0000 0.55745  0.92488  0.51396  Biso   1.000  C
  C1175    1.0000 0.58234  0.95709  0.52751  Biso   1.000  C
  H963     1.0000 0.57623  0.97717  0.53037  Biso   1.000  H
  C1176    1.0000 0.61551  0.95926  0.53665  Biso   1.000  C
  H964     1.0000 0.63303  0.98167  0.54497  Biso   1.000  H
  C1177    1.0000 0.62363  0.92853  0.53369  Biso   1.000  C
  H965     1.0000 0.64553  0.92927  0.54067  Biso   1.000  H
  C1178    1.0000 0.59780  0.89581  0.51987  Biso   1.000  C
  C1179    1.0000 0.56501  0.89468  0.51034  Biso   1.000  C
  H966     1.0000 0.54783  0.87307  0.50137  Biso   1.000  H
  C1180    1.0000 0.60694  0.86304  0.51603  Biso   1.000  C
  C1181    1.0000 0.46110  0.97032  0.43555  Biso   1.000  C
  H967     1.0000 0.43593  0.95637  0.42757  Biso   1.000  H
  H968     1.0000 0.48003  0.96457  0.42807  Biso   1.000  H
  C1182    1.0000 0.48752  0.03075  0.41531  Biso   1.000  C
  C1183    1.0000 0.50274  0.07261  0.41605  Biso   1.000  C
  H969     1.0000 0.50323  0.08487  0.42967  Biso   1.000  H
  C1184    1.0000 0.51654  0.09475  0.39723  Biso   1.000  C
  H970     1.0000 0.52713  0.12227  0.39797  Biso   1.000  H
  C1185    1.0000 0.51501  0.07656  0.37656  Biso   1.000  C
  H971     1.0000 0.52293  0.09167  0.36347  Biso   1.000  H
  C1186    1.0000 0.50154  0.03580  0.37577  Biso   1.000  C
  C1187    1.0000 0.48745  0.01410  0.39521  Biso   1.000  C
  H972     1.0000 0.47743  0.98667  0.39457  Biso   1.000  H
  C1188    1.0000 0.49967  0.01573  0.35437  Biso   1.000  C
  O316     1.0000 0.20800  0.87746  0.54717  Biso   1.000  O
  O317     1.0000 0.22518  0.84820  0.52295  Biso   1.000  O
  O318     1.0000 0.37569  0.94161  0.51711  Biso   1.000  O
  O319     1.0000 0.47533  0.01138  0.43490  Biso   1.000  O
  O320     1.0000 0.48694  0.97892  0.35534  Biso   1.000  O
  O321     1.0000 0.51051  0.03599  0.33696  Biso   1.000  O
  O322     1.0000 0.52414  0.92131  0.50341  Biso   1.000  O
  O323     1.0000 0.58207  0.83154  0.50773  Biso   1.000  O
  O324     1.0000 0.64058  0.86988  0.52339  Biso   1.000  O
  Co71     1.0000 0.67543  0.84418  0.52765  Biso   1.000  Co
  Co72     1.0000 0.58815  0.78157  0.49526  Biso   1.000  Co
