data_image0
_cell_length_a       38.763
_cell_length_b       38.763
_cell_length_c       59.471
_cell_angle_alpha    90
_cell_angle_beta     90
_cell_angle_gamma    120

_symmetry_space_group_name_H-M    "P 1"
_symmetry_int_tables_number       1

loop_
  _symmetry_equiv_pos_as_xyz
  'x, y, z'

loop_
  _atom_site_label
  _atom_site_occupancy
  _atom_site_fract_x
  _atom_site_fract_y
  _atom_site_fract_z
  _atom_site_thermal_displace_type
  _atom_site_B_iso_or_equiv
  _atom_site_type_symbol
  C1       1.0000 0.30670  0.20813  0.37003  Biso   1.000  C
  C2       1.0000 0.29495  0.23837  0.37349  Biso   1.000  C
  C3       1.0000 0.31788  0.27079  0.38802  Biso   1.000  C
  H1       1.0000 0.33740  0.27060  0.39700  Biso   1.000  H
  C4       1.0000 0.31148  0.30219  0.38893  Biso   1.000  C
  H2       1.0000 0.32680  0.32350  0.39850  Biso   1.000  H
  C5       1.0000 0.28326  0.30250  0.37617  Biso   1.000  C
  H3       1.0000 0.27920  0.32420  0.37690  Biso   1.000  H
  C6       1.0000 0.25960  0.27064  0.36174  Biso   1.000  C
  C7       1.0000 0.26570  0.23837  0.36046  Biso   1.000  C
  H4       1.0000 0.25030  0.21710  0.35090  Biso   1.000  H
  C8       1.0000 0.20623  0.24408  0.33507  Biso   1.000  C
  H5       1.0000 0.18950  0.21940  0.34300  Biso   1.000  H
  H6       1.0000 0.22150  0.23930  0.32380  Biso   1.000  H
  C9       1.0000 0.18077  0.25967  0.32405  Biso   1.000  C
  C10      1.0000 0.15144  0.26154  0.33653  Biso   1.000  C
  C11      1.0000 0.13236  0.28005  0.32704  Biso   1.000  C
  C12      1.0000 0.13898  0.29248  0.30506  Biso   1.000  C
  C13      1.0000 0.16739  0.28910  0.29268  Biso   1.000  C
  C14      1.0000 0.19066  0.27404  0.30280  Biso   1.000  C
  C15      1.0000 0.22408  0.27412  0.28958  Biso   1.000  C
  H7       1.0000 0.24610  0.28040  0.29940  Biso   1.000  H
  H8       1.0000 0.23260  0.29370  0.27780  Biso   1.000  H
  H9       1.0000 0.21480  0.24830  0.28310  Biso   1.000  H
  C16      1.0000 0.13973  0.24372  0.35969  Biso   1.000  C
  H10      1.0000 0.13620  0.21740  0.35960  Biso   1.000  H
  H11      1.0000 0.11520  0.24240  0.36400  Biso   1.000  H
  H12      1.0000 0.16030  0.26000  0.37020  Biso   1.000  H
  C17      1.0000 0.11674  0.31118  0.29486  Biso   1.000  C
  H13      1.0000 0.09260  0.30300  0.30310  Biso   1.000  H
  H14      1.0000 0.11040  0.30280  0.27950  Biso   1.000  H
  H15      1.0000 0.13300  0.33970  0.29550  Biso   1.000  H
  C18      1.0000 0.10412  0.28722  0.34076  Biso   1.000  C
  H16      1.0000 0.11060  0.28850  0.35660  Biso   1.000  H
  H17      1.0000 0.10620  0.31230  0.33650  Biso   1.000  H
  C19      1.0000 0.03454  0.25863  0.34723  Biso   1.000  C
  C20      1.0000 0.04155  0.29101  0.36052  Biso   1.000  C
  H18      1.0000 0.06750  0.31160  0.36280  Biso   1.000  H
  C21      1.0000 0.00980  0.29256  0.37032  Biso   1.000  C
  H19      1.0000 0.01450  0.31420  0.37920  Biso   1.000  H
  C22      1.0000 0.97105  0.26174  0.36685  Biso   1.000  C
  H20      1.0000 0.94980  0.26280  0.37340  Biso   1.000  H
  C23      1.0000 0.96404  0.22936  0.35356  Biso   1.000  C
  C24      1.0000 0.99579  0.22781  0.34376  Biso   1.000  C
  H21      1.0000 0.99110  0.20610  0.33490  Biso   1.000  H
  C25      1.0000 0.92295  0.19654  0.34952  Biso   1.000  C
  C26      1.0000 0.17580  0.30375  0.26876  Biso   1.000  C
  H22      1.0000 0.18690  0.28990  0.26060  Biso   1.000  H
  H23      1.0000 0.15120  0.29810  0.26140  Biso   1.000  H
  C27      1.0000 0.20909  0.36379  0.24851  Biso   1.000  C
  C28      1.0000 0.23572  0.40516  0.24956  Biso   1.000  C
  H24      1.0000 0.24730  0.41690  0.26320  Biso   1.000  H
  C29      1.0000 0.24475  0.42845  0.23049  Biso   1.000  C
  H25      1.0000 0.26170  0.45590  0.23130  Biso   1.000  H
  C30      1.0000 0.22782  0.40987  0.20989  Biso   1.000  C
  H26      1.0000 0.23450  0.42490  0.19680  Biso   1.000  H
  C31      1.0000 0.20152  0.36963  0.20913  Biso   1.000  C
  C32      1.0000 0.19309  0.34679  0.22874  Biso   1.000  C
  H27      1.0000 0.17610  0.31940  0.22800  Biso   1.000  H
  C33      1.0000 0.18271  0.34870  0.18759  Biso   1.000  C
  O1       1.0000 0.33618  0.21079  0.38047  Biso   1.000  O
  O2       1.0000 0.28948  0.18124  0.35635  Biso   1.000  O
  O3       1.0000 0.23246  0.27485  0.35049  Biso   1.000  O
  O4       1.0000 0.20255  0.34465  0.26831  Biso   1.000  O
  O5       1.0000 0.15835  0.31228  0.18857  Biso   1.000  O
  O6       1.0000 0.19241  0.36953  0.17021  Biso   1.000  O
  O7       1.0000 0.06427  0.25506  0.33679  Biso   1.000  O
  O8       1.0000 0.91644  0.16529  0.34116  Biso   1.000  O
  O9       1.0000 0.89594  0.20345  0.35681  Biso   1.000  O
  Zn1      1.0000 0.83549  0.17809  0.36099  Biso   1.000  Zn
  Zn2      1.0000 0.16451  0.34260  0.13901  Biso   1.000  Zn
  C34      1.0000 0.69330  0.90143  0.12997  Biso   1.000  C
  C35      1.0000 0.70505  0.94342  0.12651  Biso   1.000  C
  C36      1.0000 0.68212  0.95291  0.11198  Biso   1.000  C
  H28      1.0000 0.66260  0.93320  0.10300  Biso   1.000  H
  C37      1.0000 0.68852  0.99071  0.11107  Biso   1.000  C
  H29      1.0000 0.67320  0.99670  0.10150  Biso   1.000  H
  C38      1.0000 0.71674  0.01924  0.12383  Biso   1.000  C
  H30      1.0000 0.72080  0.04500  0.12310  Biso   1.000  H
  C39      1.0000 0.74040  0.01104  0.13826  Biso   1.000  C
  C40      1.0000 0.73430  0.97267  0.13954  Biso   1.000  C
  H31      1.0000 0.74970  0.96680  0.14910  Biso   1.000  H
  C41      1.0000 0.79377  0.03785  0.16493  Biso   1.000  C
  H32      1.0000 0.81050  0.02990  0.15700  Biso   1.000  H
  H33      1.0000 0.77850  0.01780  0.17620  Biso   1.000  H
  C42      1.0000 0.81923  0.07890  0.17595  Biso   1.000  C
  C43      1.0000 0.84856  0.11010  0.16347  Biso   1.000  C
  C44      1.0000 0.86764  0.14769  0.17296  Biso   1.000  C
  C45      1.0000 0.86102  0.15350  0.19494  Biso   1.000  C
  C46      1.0000 0.83261  0.12171  0.20732  Biso   1.000  C
  C47      1.0000 0.80934  0.08338  0.19720  Biso   1.000  C
  C48      1.0000 0.77592  0.05004  0.21042  Biso   1.000  C
  H34      1.0000 0.75390  0.03430  0.20060  Biso   1.000  H
  H35      1.0000 0.76740  0.06110  0.22220  Biso   1.000  H
  H36      1.0000 0.78520  0.03350  0.21690  Biso   1.000  H
  C49      1.0000 0.86027  0.10399  0.14031  Biso   1.000  C
  H37      1.0000 0.86380  0.08120  0.14040  Biso   1.000  H
  H38      1.0000 0.88480  0.12720  0.13600  Biso   1.000  H
  H39      1.0000 0.83970  0.09970  0.12980  Biso   1.000  H
  C50      1.0000 0.88326  0.19444  0.20514  Biso   1.000  C
  H40      1.0000 0.90740  0.21040  0.19690  Biso   1.000  H
  H41      1.0000 0.88960  0.19240  0.22050  Biso   1.000  H
  H42      1.0000 0.86700  0.20670  0.20450  Biso   1.000  H
  C51      1.0000 0.89588  0.18310  0.15924  Biso   1.000  C
  H43      1.0000 0.88940  0.17790  0.14340  Biso   1.000  H
  H44      1.0000 0.89380  0.20610  0.16350  Biso   1.000  H
  C52      1.0000 0.96546  0.22409  0.15277  Biso   1.000  C
  C53      1.0000 0.95845  0.24946  0.13948  Biso   1.000  C
  H45      1.0000 0.93250  0.24410  0.13720  Biso   1.000  H
  C54      1.0000 0.99020  0.28276  0.12968  Biso   1.000  C
  H46      1.0000 0.98550  0.29970  0.12080  Biso   1.000  H
  C55      1.0000 0.02895  0.29069  0.13315  Biso   1.000  C
  H47      1.0000 0.05020  0.31300  0.12660  Biso   1.000  H
  C56      1.0000 0.03596  0.26532  0.14644  Biso   1.000  C
  C57      1.0000 0.00421  0.23202  0.15624  Biso   1.000  C
  H48      1.0000 0.00890  0.21500  0.16510  Biso   1.000  H
  C58      1.0000 0.07705  0.27359  0.15048  Biso   1.000  C
  C59      1.0000 0.82420  0.12795  0.23124  Biso   1.000  C
  H49      1.0000 0.81310  0.10300  0.23940  Biso   1.000  H
  H50      1.0000 0.84880  0.14690  0.23860  Biso   1.000  H
  C60      1.0000 0.79091  0.15470  0.25149  Biso   1.000  C
  C61      1.0000 0.76428  0.16944  0.25044  Biso   1.000  C
  H51      1.0000 0.75270  0.16960  0.23680  Biso   1.000  H
  C62      1.0000 0.75525  0.18370  0.26951  Biso   1.000  C
  H52      1.0000 0.73830  0.19420  0.26870  Biso   1.000  H
  C63      1.0000 0.77218  0.18205  0.29011  Biso   1.000  C
  H53      1.0000 0.76550  0.19040  0.30320  Biso   1.000  H
  C64      1.0000 0.79848  0.16811  0.29087  Biso   1.000  C
  C65      1.0000 0.80691  0.15370  0.27126  Biso   1.000  C
  H54      1.0000 0.82390  0.14330  0.27200  Biso   1.000  H
  C66      1.0000 0.81729  0.16599  0.31241  Biso   1.000  C
  O10      1.0000 0.66382  0.87461  0.11953  Biso   1.000  O
  O11      1.0000 0.71052  0.89176  0.14365  Biso   1.000  O
  O12      1.0000 0.76754  0.04239  0.14951  Biso   1.000  O
  O13      1.0000 0.79745  0.14210  0.23169  Biso   1.000  O
  O14      1.0000 0.84165  0.15393  0.31143  Biso   1.000  O
  O15      1.0000 0.80759  0.17712  0.32979  Biso   1.000  O
  O16      1.0000 0.93573  0.19079  0.16321  Biso   1.000  O
  O17      1.0000 0.08356  0.24885  0.15884  Biso   1.000  O
  O18      1.0000 0.10406  0.30751  0.14319  Biso   1.000  O
  Zn3      1.0000 0.34260  0.16451  0.36099  Biso   1.000  Zn
  C67      1.0000 0.90143  0.69330  0.37003  Biso   1.000  C
  C68      1.0000 0.94342  0.70505  0.37349  Biso   1.000  C
  C69      1.0000 0.95291  0.68212  0.38802  Biso   1.000  C
  H55      1.0000 0.93320  0.66260  0.39700  Biso   1.000  H
  C70      1.0000 0.99071  0.68852  0.38893  Biso   1.000  C
  H56      1.0000 0.99670  0.67320  0.39850  Biso   1.000  H
  C71      1.0000 0.01924  0.71674  0.37617  Biso   1.000  C
  H57      1.0000 0.04500  0.72080  0.37690  Biso   1.000  H
  C72      1.0000 0.01104  0.74040  0.36174  Biso   1.000  C
  C73      1.0000 0.97267  0.73430  0.36046  Biso   1.000  C
  H58      1.0000 0.96680  0.74970  0.35090  Biso   1.000  H
  C74      1.0000 0.03785  0.79377  0.33507  Biso   1.000  C
  H59      1.0000 0.02990  0.81050  0.34300  Biso   1.000  H
  H60      1.0000 0.01780  0.77850  0.32380  Biso   1.000  H
  C75      1.0000 0.07890  0.81923  0.32405  Biso   1.000  C
  C76      1.0000 0.11010  0.84856  0.33653  Biso   1.000  C
  C77      1.0000 0.14769  0.86764  0.32704  Biso   1.000  C
  C78      1.0000 0.15350  0.86102  0.30506  Biso   1.000  C
  C79      1.0000 0.12171  0.83261  0.29268  Biso   1.000  C
  C80      1.0000 0.08338  0.80934  0.30280  Biso   1.000  C
  C81      1.0000 0.05004  0.77592  0.28958  Biso   1.000  C
  H61      1.0000 0.03430  0.75390  0.29940  Biso   1.000  H
  H62      1.0000 0.06110  0.76740  0.27780  Biso   1.000  H
  H63      1.0000 0.03350  0.78520  0.28310  Biso   1.000  H
  C82      1.0000 0.10399  0.86027  0.35969  Biso   1.000  C
  H64      1.0000 0.08120  0.86380  0.35960  Biso   1.000  H
  H65      1.0000 0.12720  0.88480  0.36400  Biso   1.000  H
  H66      1.0000 0.09970  0.83970  0.37020  Biso   1.000  H
  C83      1.0000 0.19444  0.88326  0.29486  Biso   1.000  C
  H67      1.0000 0.21040  0.90740  0.30310  Biso   1.000  H
  H68      1.0000 0.19240  0.88960  0.27950  Biso   1.000  H
  H69      1.0000 0.20670  0.86700  0.29550  Biso   1.000  H
  C84      1.0000 0.18310  0.89588  0.34076  Biso   1.000  C
  H70      1.0000 0.17790  0.88940  0.35660  Biso   1.000  H
  H71      1.0000 0.20610  0.89380  0.33650  Biso   1.000  H
  C85      1.0000 0.22409  0.96546  0.34723  Biso   1.000  C
  C86      1.0000 0.24946  0.95845  0.36052  Biso   1.000  C
  H72      1.0000 0.24410  0.93250  0.36280  Biso   1.000  H
  C87      1.0000 0.28276  0.99020  0.37032  Biso   1.000  C
  H73      1.0000 0.29970  0.98550  0.37920  Biso   1.000  H
  C88      1.0000 0.29069  0.02895  0.36685  Biso   1.000  C
  H74      1.0000 0.31300  0.05020  0.37340  Biso   1.000  H
  C89      1.0000 0.26532  0.03596  0.35356  Biso   1.000  C
  C90      1.0000 0.23202  0.00421  0.34376  Biso   1.000  C
  H75      1.0000 0.21500  0.00890  0.33490  Biso   1.000  H
  C91      1.0000 0.27359  0.07705  0.34952  Biso   1.000  C
  C92      1.0000 0.12795  0.82420  0.26876  Biso   1.000  C
  H76      1.0000 0.10300  0.81310  0.26060  Biso   1.000  H
  H77      1.0000 0.14690  0.84880  0.26140  Biso   1.000  H
  C93      1.0000 0.15470  0.79091  0.24851  Biso   1.000  C
  C94      1.0000 0.16944  0.76428  0.24956  Biso   1.000  C
  H78      1.0000 0.16960  0.75270  0.26320  Biso   1.000  H
  C95      1.0000 0.18370  0.75525  0.23049  Biso   1.000  C
  H79      1.0000 0.19420  0.73830  0.23130  Biso   1.000  H
  C96      1.0000 0.18205  0.77218  0.20989  Biso   1.000  C
  H80      1.0000 0.19040  0.76550  0.19680  Biso   1.000  H
  C97      1.0000 0.16811  0.79848  0.20913  Biso   1.000  C
  C98      1.0000 0.15370  0.80691  0.22874  Biso   1.000  C
  H81      1.0000 0.14330  0.82390  0.22800  Biso   1.000  H
  C99      1.0000 0.16599  0.81729  0.18759  Biso   1.000  C
  O19      1.0000 0.87461  0.66382  0.38047  Biso   1.000  O
  O20      1.0000 0.89176  0.71052  0.35635  Biso   1.000  O
  O21      1.0000 0.04239  0.76754  0.35049  Biso   1.000  O
  O22      1.0000 0.14210  0.79745  0.26831  Biso   1.000  O
  O23      1.0000 0.15393  0.84165  0.18857  Biso   1.000  O
  O24      1.0000 0.17712  0.80759  0.17021  Biso   1.000  O
  O25      1.0000 0.19079  0.93573  0.33679  Biso   1.000  O
  O26      1.0000 0.24885  0.08356  0.34116  Biso   1.000  O
  O27      1.0000 0.30751  0.10406  0.35681  Biso   1.000  O
  C100     1.0000 0.20813  0.30670  0.12997  Biso   1.000  C
  C101     1.0000 0.23837  0.29495  0.12651  Biso   1.000  C
  C102     1.0000 0.27079  0.31788  0.11198  Biso   1.000  C
  H82      1.0000 0.27060  0.33740  0.10300  Biso   1.000  H
  C103     1.0000 0.30219  0.31148  0.11107  Biso   1.000  C
  H83      1.0000 0.32350  0.32680  0.10150  Biso   1.000  H
  C104     1.0000 0.30250  0.28326  0.12383  Biso   1.000  C
  H84      1.0000 0.32420  0.27920  0.12310  Biso   1.000  H
  C105     1.0000 0.27064  0.25960  0.13826  Biso   1.000  C
  C106     1.0000 0.23837  0.26570  0.13954  Biso   1.000  C
  H85      1.0000 0.21710  0.25030  0.14910  Biso   1.000  H
  C107     1.0000 0.24408  0.20623  0.16493  Biso   1.000  C
  H86      1.0000 0.21940  0.18950  0.15700  Biso   1.000  H
  H87      1.0000 0.23930  0.22150  0.17620  Biso   1.000  H
  C108     1.0000 0.25967  0.18077  0.17595  Biso   1.000  C
  C109     1.0000 0.26154  0.15144  0.16347  Biso   1.000  C
  C110     1.0000 0.28005  0.13236  0.17296  Biso   1.000  C
  C111     1.0000 0.29248  0.13898  0.19494  Biso   1.000  C
  C112     1.0000 0.28910  0.16739  0.20732  Biso   1.000  C
  C113     1.0000 0.27404  0.19066  0.19720  Biso   1.000  C
  C114     1.0000 0.27412  0.22408  0.21042  Biso   1.000  C
  H88      1.0000 0.28040  0.24610  0.20060  Biso   1.000  H
  H89      1.0000 0.29370  0.23260  0.22220  Biso   1.000  H
  H90      1.0000 0.24830  0.21480  0.21690  Biso   1.000  H
  C115     1.0000 0.24372  0.13973  0.14031  Biso   1.000  C
  H91      1.0000 0.21740  0.13620  0.14040  Biso   1.000  H
  H92      1.0000 0.24240  0.11520  0.13600  Biso   1.000  H
  H93      1.0000 0.26000  0.16030  0.12980  Biso   1.000  H
  C116     1.0000 0.31118  0.11674  0.20514  Biso   1.000  C
  H94      1.0000 0.30300  0.09260  0.19690  Biso   1.000  H
  H95      1.0000 0.30280  0.11040  0.22050  Biso   1.000  H
  H96      1.0000 0.33970  0.13300  0.20450  Biso   1.000  H
  C117     1.0000 0.28722  0.10412  0.15924  Biso   1.000  C
  H97      1.0000 0.28850  0.11060  0.14340  Biso   1.000  H
  H98      1.0000 0.31230  0.10620  0.16350  Biso   1.000  H
  C118     1.0000 0.25863  0.03454  0.15277  Biso   1.000  C
  C119     1.0000 0.29101  0.04155  0.13948  Biso   1.000  C
  H99      1.0000 0.31160  0.06750  0.13720  Biso   1.000  H
  C120     1.0000 0.29256  0.00980  0.12968  Biso   1.000  C
  H100     1.0000 0.31420  0.01450  0.12080  Biso   1.000  H
  C121     1.0000 0.26174  0.97105  0.13315  Biso   1.000  C
  H101     1.0000 0.26280  0.94980  0.12660  Biso   1.000  H
  C122     1.0000 0.22936  0.96404  0.14644  Biso   1.000  C
  C123     1.0000 0.22781  0.99579  0.15624  Biso   1.000  C
  H102     1.0000 0.20610  0.99110  0.16510  Biso   1.000  H
  C124     1.0000 0.19654  0.92295  0.15048  Biso   1.000  C
  C125     1.0000 0.30375  0.17580  0.23124  Biso   1.000  C
  H103     1.0000 0.28990  0.18690  0.23940  Biso   1.000  H
  H104     1.0000 0.29810  0.15120  0.23860  Biso   1.000  H
  C126     1.0000 0.36379  0.20909  0.25149  Biso   1.000  C
  C127     1.0000 0.40516  0.23572  0.25044  Biso   1.000  C
  H105     1.0000 0.41690  0.24730  0.23680  Biso   1.000  H
  C128     1.0000 0.42845  0.24475  0.26951  Biso   1.000  C
  H106     1.0000 0.45590  0.26170  0.26870  Biso   1.000  H
  C129     1.0000 0.40987  0.22782  0.29011  Biso   1.000  C
  H107     1.0000 0.42490  0.23450  0.30320  Biso   1.000  H
  C130     1.0000 0.36963  0.20152  0.29087  Biso   1.000  C
  C131     1.0000 0.34679  0.19309  0.27126  Biso   1.000  C
  H108     1.0000 0.31940  0.17610  0.27200  Biso   1.000  H
  C132     1.0000 0.34870  0.18271  0.31241  Biso   1.000  C
  O28      1.0000 0.21079  0.33618  0.11953  Biso   1.000  O
  O29      1.0000 0.18124  0.28948  0.14365  Biso   1.000  O
  O30      1.0000 0.27485  0.23246  0.14951  Biso   1.000  O
  O31      1.0000 0.34465  0.20255  0.23169  Biso   1.000  O
  O32      1.0000 0.31228  0.15835  0.31143  Biso   1.000  O
  O33      1.0000 0.36953  0.19241  0.32979  Biso   1.000  O
  O34      1.0000 0.25506  0.06427  0.16321  Biso   1.000  O
  O35      1.0000 0.16529  0.91644  0.15884  Biso   1.000  O
  O36      1.0000 0.20345  0.89594  0.14319  Biso   1.000  O
  Zn4      1.0000 0.17809  0.83549  0.13901  Biso   1.000  Zn
  C133     1.0000 0.97337  0.54146  0.70336  Biso   1.000  C
  C134     1.0000 0.96162  0.57170  0.70682  Biso   1.000  C
  C135     1.0000 0.98455  0.60412  0.72135  Biso   1.000  C
  H109     1.0000 0.00407  0.60393  0.73033  Biso   1.000  H
  C136     1.0000 0.97815  0.63552  0.72226  Biso   1.000  C
  H110     1.0000 0.99347  0.65683  0.73183  Biso   1.000  H
  C137     1.0000 0.94993  0.63583  0.70950  Biso   1.000  C
  H111     1.0000 0.94587  0.65753  0.71023  Biso   1.000  H
  C138     1.0000 0.92627  0.60397  0.69507  Biso   1.000  C
  C139     1.0000 0.93237  0.57170  0.69379  Biso   1.000  C
  H112     1.0000 0.91697  0.55043  0.68423  Biso   1.000  H
  C140     1.0000 0.87290  0.57741  0.66840  Biso   1.000  C
  H113     1.0000 0.85617  0.55273  0.67633  Biso   1.000  H
  H114     1.0000 0.88817  0.57263  0.65713  Biso   1.000  H
  C141     1.0000 0.84744  0.59300  0.65738  Biso   1.000  C
  C142     1.0000 0.81811  0.59487  0.66986  Biso   1.000  C
  C143     1.0000 0.79903  0.61338  0.66037  Biso   1.000  C
  C144     1.0000 0.80565  0.62581  0.63839  Biso   1.000  C
  C145     1.0000 0.83406  0.62243  0.62601  Biso   1.000  C
  C146     1.0000 0.85733  0.60737  0.63613  Biso   1.000  C
  C147     1.0000 0.89075  0.60745  0.62291  Biso   1.000  C
  H115     1.0000 0.91277  0.61373  0.63273  Biso   1.000  H
  H116     1.0000 0.89927  0.62703  0.61113  Biso   1.000  H
  H117     1.0000 0.88147  0.58163  0.61643  Biso   1.000  H
  C148     1.0000 0.80640  0.57705  0.69302  Biso   1.000  C
  H118     1.0000 0.80287  0.55073  0.69293  Biso   1.000  H
  H119     1.0000 0.78187  0.57573  0.69733  Biso   1.000  H
  H120     1.0000 0.82697  0.59333  0.70353  Biso   1.000  H
  C149     1.0000 0.78341  0.64451  0.62819  Biso   1.000  C
  H121     1.0000 0.75927  0.63633  0.63643  Biso   1.000  H
  H122     1.0000 0.77707  0.63613  0.61283  Biso   1.000  H
  H123     1.0000 0.79967  0.67303  0.62883  Biso   1.000  H
  C150     1.0000 0.77079  0.62055  0.67409  Biso   1.000  C
  H124     1.0000 0.77727  0.62183  0.68993  Biso   1.000  H
  H125     1.0000 0.77287  0.64563  0.66983  Biso   1.000  H
  C151     1.0000 0.70121  0.59196  0.68056  Biso   1.000  C
  C152     1.0000 0.70822  0.62434  0.69385  Biso   1.000  C
  H126     1.0000 0.73417  0.64493  0.69613  Biso   1.000  H
  C153     1.0000 0.67647  0.62589  0.70365  Biso   1.000  C
  H127     1.0000 0.68117  0.64753  0.71253  Biso   1.000  H
  C154     1.0000 0.63772  0.59507  0.70018  Biso   1.000  C
  H128     1.0000 0.61647  0.59613  0.70673  Biso   1.000  H
  C155     1.0000 0.63071  0.56269  0.68689  Biso   1.000  C
  C156     1.0000 0.66246  0.56114  0.67709  Biso   1.000  C
  H129     1.0000 0.65777  0.53943  0.66823  Biso   1.000  H
  C157     1.0000 0.58962  0.52987  0.68285  Biso   1.000  C
  C158     1.0000 0.84247  0.63708  0.60209  Biso   1.000  C
  H130     1.0000 0.85357  0.62323  0.59393  Biso   1.000  H
  H131     1.0000 0.81787  0.63143  0.59473  Biso   1.000  H
  C159     1.0000 0.87576  0.69712  0.58184  Biso   1.000  C
  C160     1.0000 0.90239  0.73849  0.58289  Biso   1.000  C
  H132     1.0000 0.91397  0.75023  0.59653  Biso   1.000  H
  C161     1.0000 0.91142  0.76178  0.56382  Biso   1.000  C
  H133     1.0000 0.92837  0.78923  0.56463  Biso   1.000  H
  C162     1.0000 0.89449  0.74320  0.54322  Biso   1.000  C
  H134     1.0000 0.90117  0.75823  0.53013  Biso   1.000  H
  C163     1.0000 0.86819  0.70296  0.54246  Biso   1.000  C
  C164     1.0000 0.85976  0.68012  0.56207  Biso   1.000  C
  H135     1.0000 0.84277  0.65273  0.56133  Biso   1.000  H
  C165     1.0000 0.84938  0.68203  0.52092  Biso   1.000  C
  O37      1.0000 0.00285  0.54412  0.71380  Biso   1.000  O
  O38      1.0000 0.95615  0.51457  0.68968  Biso   1.000  O
  O39      1.0000 0.89913  0.60818  0.68382  Biso   1.000  O
  O40      1.0000 0.86922  0.67798  0.60164  Biso   1.000  O
  O41      1.0000 0.82502  0.64561  0.52190  Biso   1.000  O
  O42      1.0000 0.85908  0.70286  0.50354  Biso   1.000  O
  O43      1.0000 0.73094  0.58839  0.67012  Biso   1.000  O
  O44      1.0000 0.58311  0.49862  0.67449  Biso   1.000  O
  O45      1.0000 0.56261  0.53678  0.69014  Biso   1.000  O
  Zn5      1.0000 0.50216  0.51143  0.69433  Biso   1.000  Zn
  Zn6      1.0000 0.83117  0.67593  0.47234  Biso   1.000  Zn
  C166     1.0000 0.35997  0.23476  0.46330  Biso   1.000  C
  C167     1.0000 0.37172  0.27675  0.45984  Biso   1.000  C
  C168     1.0000 0.34879  0.28624  0.44531  Biso   1.000  C
  H136     1.0000 0.32927  0.26653  0.43633  Biso   1.000  H
  C169     1.0000 0.35519  0.32404  0.44440  Biso   1.000  C
  H137     1.0000 0.33987  0.33003  0.43483  Biso   1.000  H
  C170     1.0000 0.38341  0.35257  0.45716  Biso   1.000  C
  H138     1.0000 0.38747  0.37833  0.45643  Biso   1.000  H
  C171     1.0000 0.40707  0.34437  0.47159  Biso   1.000  C
  C172     1.0000 0.40097  0.30600  0.47287  Biso   1.000  C
  H139     1.0000 0.41637  0.30013  0.48243  Biso   1.000  H
  C173     1.0000 0.46044  0.37118  0.49826  Biso   1.000  C
  H140     1.0000 0.47717  0.36323  0.49033  Biso   1.000  H
  H141     1.0000 0.44517  0.35113  0.50953  Biso   1.000  H
  C174     1.0000 0.48590  0.41223  0.50928  Biso   1.000  C
  C175     1.0000 0.51523  0.44343  0.49680  Biso   1.000  C
  C176     1.0000 0.53431  0.48102  0.50629  Biso   1.000  C
  C177     1.0000 0.52769  0.48683  0.52827  Biso   1.000  C
  C178     1.0000 0.49928  0.45504  0.54065  Biso   1.000  C
  C179     1.0000 0.47601  0.41671  0.53053  Biso   1.000  C
  C180     1.0000 0.44259  0.38337  0.54375  Biso   1.000  C
  H142     1.0000 0.42057  0.36763  0.53393  Biso   1.000  H
  H143     1.0000 0.43407  0.39443  0.55553  Biso   1.000  H
  H144     1.0000 0.45187  0.36683  0.55023  Biso   1.000  H
  C181     1.0000 0.52694  0.43732  0.47364  Biso   1.000  C
  H145     1.0000 0.53047  0.41453  0.47373  Biso   1.000  H
  H146     1.0000 0.55147  0.46053  0.46933  Biso   1.000  H
  H147     1.0000 0.50637  0.43303  0.46313  Biso   1.000  H
  C182     1.0000 0.54993  0.52777  0.53847  Biso   1.000  C
  H148     1.0000 0.57407  0.54373  0.53023  Biso   1.000  H
  H149     1.0000 0.55627  0.52573  0.55383  Biso   1.000  H
  H150     1.0000 0.53367  0.54003  0.53783  Biso   1.000  H
  C183     1.0000 0.56255  0.51643  0.49257  Biso   1.000  C
  H151     1.0000 0.55607  0.51123  0.47673  Biso   1.000  H
  H152     1.0000 0.56047  0.53943  0.49683  Biso   1.000  H
  C184     1.0000 0.63213  0.55742  0.48610  Biso   1.000  C
  C185     1.0000 0.62512  0.58279  0.47281  Biso   1.000  C
  H153     1.0000 0.59917  0.57743  0.47053  Biso   1.000  H
  C186     1.0000 0.65687  0.61609  0.46301  Biso   1.000  C
  H154     1.0000 0.65217  0.63303  0.45413  Biso   1.000  H
  C187     1.0000 0.69562  0.62402  0.46648  Biso   1.000  C
  H155     1.0000 0.71687  0.64633  0.45993  Biso   1.000  H
  C188     1.0000 0.70263  0.59865  0.47977  Biso   1.000  C
  C189     1.0000 0.67088  0.56535  0.48957  Biso   1.000  C
  H156     1.0000 0.67557  0.54833  0.49843  Biso   1.000  H
  C190     1.0000 0.74372  0.60692  0.48381  Biso   1.000  C
  C191     1.0000 0.49087  0.46128  0.56457  Biso   1.000  C
  H157     1.0000 0.47977  0.43633  0.57273  Biso   1.000  H
  H158     1.0000 0.51547  0.48023  0.57193  Biso   1.000  H
  C192     1.0000 0.45758  0.48803  0.58482  Biso   1.000  C
  C193     1.0000 0.43095  0.50277  0.58377  Biso   1.000  C
  H159     1.0000 0.41937  0.50293  0.57013  Biso   1.000  H
  C194     1.0000 0.42192  0.51703  0.60284  Biso   1.000  C
  H160     1.0000 0.40497  0.52753  0.60203  Biso   1.000  H
  C195     1.0000 0.43885  0.51538  0.62344  Biso   1.000  C
  H161     1.0000 0.43217  0.52373  0.63653  Biso   1.000  H
  C196     1.0000 0.46515  0.50144  0.62420  Biso   1.000  C
  C197     1.0000 0.47358  0.48703  0.60459  Biso   1.000  C
  H162     1.0000 0.49057  0.47663  0.60533  Biso   1.000  H
  C198     1.0000 0.48396  0.49932  0.64574  Biso   1.000  C
  O46      1.0000 0.33049  0.20794  0.45286  Biso   1.000  O
  O47      1.0000 0.37719  0.22509  0.47698  Biso   1.000  O
  O48      1.0000 0.43421  0.37572  0.48284  Biso   1.000  O
  O49      1.0000 0.46412  0.47543  0.56502  Biso   1.000  O
  O50      1.0000 0.50832  0.48726  0.64476  Biso   1.000  O
  O51      1.0000 0.47426  0.51045  0.66312  Biso   1.000  O
  O52      1.0000 0.60240  0.52412  0.49654  Biso   1.000  O
  O53      1.0000 0.75023  0.58218  0.49217  Biso   1.000  O
  O54      1.0000 0.77073  0.64084  0.47652  Biso   1.000  O
  Zn7      1.0000 0.00927  0.49784  0.69433  Biso   1.000  Zn
  C199     1.0000 0.56810  0.02663  0.70336  Biso   1.000  C
  C200     1.0000 0.61009  0.03838  0.70682  Biso   1.000  C
  C201     1.0000 0.61958  0.01545  0.72135  Biso   1.000  C
  H163     1.0000 0.59987  0.99593  0.73033  Biso   1.000  H
  C202     1.0000 0.65738  0.02185  0.72226  Biso   1.000  C
  H164     1.0000 0.66337  0.00653  0.73183  Biso   1.000  H
  C203     1.0000 0.68591  0.05007  0.70950  Biso   1.000  C
  H165     1.0000 0.71167  0.05413  0.71023  Biso   1.000  H
  C204     1.0000 0.67771  0.07373  0.69507  Biso   1.000  C
  C205     1.0000 0.63934  0.06763  0.69379  Biso   1.000  C
  H166     1.0000 0.63347  0.08303  0.68423  Biso   1.000  H
  C206     1.0000 0.70452  0.12710  0.66840  Biso   1.000  C
  H167     1.0000 0.69657  0.14383  0.67633  Biso   1.000  H
  H168     1.0000 0.68447  0.11183  0.65713  Biso   1.000  H
  C207     1.0000 0.74557  0.15256  0.65738  Biso   1.000  C
  C208     1.0000 0.77677  0.18189  0.66986  Biso   1.000  C
  C209     1.0000 0.81436  0.20097  0.66037  Biso   1.000  C
  C210     1.0000 0.82017  0.19435  0.63839  Biso   1.000  C
  C211     1.0000 0.78838  0.16594  0.62601  Biso   1.000  C
  C212     1.0000 0.75005  0.14267  0.63613  Biso   1.000  C
  C213     1.0000 0.71671  0.10925  0.62291  Biso   1.000  C
  H169     1.0000 0.70097  0.08723  0.63273  Biso   1.000  H
  H170     1.0000 0.72777  0.10073  0.61113  Biso   1.000  H
  H171     1.0000 0.70017  0.11853  0.61643  Biso   1.000  H
  C214     1.0000 0.77066  0.19360  0.69302  Biso   1.000  C
  H172     1.0000 0.74787  0.19713  0.69293  Biso   1.000  H
  H173     1.0000 0.79387  0.21813  0.69733  Biso   1.000  H
  H174     1.0000 0.76637  0.17303  0.70353  Biso   1.000  H
  C215     1.0000 0.86111  0.21659  0.62819  Biso   1.000  C
  H175     1.0000 0.87707  0.24073  0.63643  Biso   1.000  H
  H176     1.0000 0.85907  0.22293  0.61283  Biso   1.000  H
  H177     1.0000 0.87337  0.20033  0.62883  Biso   1.000  H
  C216     1.0000 0.84977  0.22921  0.67409  Biso   1.000  C
  H178     1.0000 0.84457  0.22273  0.68993  Biso   1.000  H
  H179     1.0000 0.87277  0.22713  0.66983  Biso   1.000  H
  C217     1.0000 0.89076  0.29879  0.68056  Biso   1.000  C
  C218     1.0000 0.91613  0.29178  0.69385  Biso   1.000  C
  H180     1.0000 0.91077  0.26583  0.69613  Biso   1.000  H
  C219     1.0000 0.94943  0.32353  0.70365  Biso   1.000  C
  H181     1.0000 0.96637  0.31883  0.71253  Biso   1.000  H
  C220     1.0000 0.95736  0.36228  0.70018  Biso   1.000  C
  H182     1.0000 0.97967  0.38353  0.70673  Biso   1.000  H
  C221     1.0000 0.93199  0.36929  0.68689  Biso   1.000  C
  C222     1.0000 0.89869  0.33754  0.67709  Biso   1.000  C
  H183     1.0000 0.88167  0.34223  0.66823  Biso   1.000  H
  C223     1.0000 0.94026  0.41038  0.68285  Biso   1.000  C
  C224     1.0000 0.79462  0.15753  0.60209  Biso   1.000  C
  H184     1.0000 0.76967  0.14643  0.59393  Biso   1.000  H
  H185     1.0000 0.81357  0.18213  0.59473  Biso   1.000  H
  C225     1.0000 0.82137  0.12424  0.58184  Biso   1.000  C
  C226     1.0000 0.83611  0.09761  0.58289  Biso   1.000  C
  H186     1.0000 0.83627  0.08603  0.59653  Biso   1.000  H
  C227     1.0000 0.85037  0.08858  0.56382  Biso   1.000  C
  H187     1.0000 0.86087  0.07163  0.56463  Biso   1.000  H
  C228     1.0000 0.84872  0.10551  0.54322  Biso   1.000  C
  H188     1.0000 0.85707  0.09883  0.53013  Biso   1.000  H
  C229     1.0000 0.83478  0.13181  0.54246  Biso   1.000  C
  C230     1.0000 0.82037  0.14024  0.56207  Biso   1.000  C
  H189     1.0000 0.80997  0.15723  0.56133  Biso   1.000  H
  C231     1.0000 0.83266  0.15062  0.52092  Biso   1.000  C
  O55      1.0000 0.54128  0.99715  0.71380  Biso   1.000  O
  O56      1.0000 0.55843  0.04385  0.68968  Biso   1.000  O
  O57      1.0000 0.70906  0.10087  0.68382  Biso   1.000  O
  O58      1.0000 0.80877  0.13078  0.60164  Biso   1.000  O
  O59      1.0000 0.82060  0.17498  0.52190  Biso   1.000  O
  O60      1.0000 0.84379  0.14092  0.50354  Biso   1.000  O
  O61      1.0000 0.85746  0.26906  0.67012  Biso   1.000  O
  O62      1.0000 0.91552  0.41689  0.67449  Biso   1.000  O
  O63      1.0000 0.97418  0.43739  0.69014  Biso   1.000  O
  C232     1.0000 0.87480  0.64003  0.46330  Biso   1.000  C
  C233     1.0000 0.90504  0.62828  0.45984  Biso   1.000  C
  C234     1.0000 0.93746  0.65121  0.44531  Biso   1.000  C
  H190     1.0000 0.93727  0.67073  0.43633  Biso   1.000  H
  C235     1.0000 0.96886  0.64481  0.44440  Biso   1.000  C
  H191     1.0000 0.99017  0.66013  0.43483  Biso   1.000  H
  C236     1.0000 0.96917  0.61659  0.45716  Biso   1.000  C
  H192     1.0000 0.99087  0.61253  0.45643  Biso   1.000  H
  C237     1.0000 0.93731  0.59293  0.47159  Biso   1.000  C
  C238     1.0000 0.90504  0.59903  0.47287  Biso   1.000  C
  H193     1.0000 0.88377  0.58363  0.48243  Biso   1.000  H
  C239     1.0000 0.91075  0.53956  0.49826  Biso   1.000  C
  H194     1.0000 0.88607  0.52283  0.49033  Biso   1.000  H
  H195     1.0000 0.90597  0.55483  0.50953  Biso   1.000  H
  C240     1.0000 0.92634  0.51410  0.50928  Biso   1.000  C
  C241     1.0000 0.92821  0.48477  0.49680  Biso   1.000  C
  C242     1.0000 0.94672  0.46569  0.50629  Biso   1.000  C
  C243     1.0000 0.95915  0.47231  0.52827  Biso   1.000  C
  C244     1.0000 0.95577  0.50072  0.54065  Biso   1.000  C
  C245     1.0000 0.94071  0.52399  0.53053  Biso   1.000  C
  C246     1.0000 0.94079  0.55741  0.54375  Biso   1.000  C
  H196     1.0000 0.94707  0.57943  0.53393  Biso   1.000  H
  H197     1.0000 0.96037  0.56593  0.55553  Biso   1.000  H
  H198     1.0000 0.91497  0.54813  0.55023  Biso   1.000  H
  C247     1.0000 0.91039  0.47306  0.47364  Biso   1.000  C
  H199     1.0000 0.88407  0.46953  0.47373  Biso   1.000  H
  H200     1.0000 0.90907  0.44853  0.46933  Biso   1.000  H
  H201     1.0000 0.92667  0.49363  0.46313  Biso   1.000  H
  C248     1.0000 0.97785  0.45007  0.53847  Biso   1.000  C
  H202     1.0000 0.96967  0.42593  0.53023  Biso   1.000  H
  H203     1.0000 0.96947  0.44373  0.55383  Biso   1.000  H
  H204     1.0000 0.00637  0.46633  0.53783  Biso   1.000  H
  C249     1.0000 0.95389  0.43745  0.49257  Biso   1.000  C
  H205     1.0000 0.95517  0.44393  0.47673  Biso   1.000  H
  H206     1.0000 0.97897  0.43953  0.49683  Biso   1.000  H
  C250     1.0000 0.92530  0.36787  0.48610  Biso   1.000  C
  C251     1.0000 0.95768  0.37488  0.47281  Biso   1.000  C
  H207     1.0000 0.97827  0.40083  0.47053  Biso   1.000  H
  C252     1.0000 0.95923  0.34313  0.46301  Biso   1.000  C
  H208     1.0000 0.98087  0.34783  0.45413  Biso   1.000  H
  C253     1.0000 0.92841  0.30438  0.46648  Biso   1.000  C
  H209     1.0000 0.92947  0.28313  0.45993  Biso   1.000  H
  C254     1.0000 0.89603  0.29737  0.47977  Biso   1.000  C
  C255     1.0000 0.89448  0.32912  0.48957  Biso   1.000  C
  H210     1.0000 0.87277  0.32443  0.49843  Biso   1.000  H
  C256     1.0000 0.86321  0.25628  0.48381  Biso   1.000  C
  C257     1.0000 0.97042  0.50913  0.56457  Biso   1.000  C
  H211     1.0000 0.95657  0.52023  0.57273  Biso   1.000  H
  H212     1.0000 0.96477  0.48453  0.57193  Biso   1.000  H
  C258     1.0000 0.03046  0.54242  0.58482  Biso   1.000  C
  C259     1.0000 0.07183  0.56905  0.58377  Biso   1.000  C
  H213     1.0000 0.08357  0.58063  0.57013  Biso   1.000  H
  C260     1.0000 0.09512  0.57808  0.60284  Biso   1.000  C
  H214     1.0000 0.12257  0.59503  0.60203  Biso   1.000  H
  C261     1.0000 0.07654  0.56115  0.62344  Biso   1.000  C
  H215     1.0000 0.09157  0.56783  0.63653  Biso   1.000  H
  C262     1.0000 0.03630  0.53485  0.62420  Biso   1.000  C
  C263     1.0000 0.01346  0.52642  0.60459  Biso   1.000  C
  H216     1.0000 0.98607  0.50943  0.60533  Biso   1.000  H
  C264     1.0000 0.01537  0.51604  0.64574  Biso   1.000  C
  O64      1.0000 0.87746  0.66951  0.45286  Biso   1.000  O
  O65      1.0000 0.84791  0.62281  0.47698  Biso   1.000  O
  O66      1.0000 0.94152  0.56579  0.48284  Biso   1.000  O
  O67      1.0000 0.01132  0.53588  0.56502  Biso   1.000  O
  O68      1.0000 0.97895  0.49168  0.64476  Biso   1.000  O
  O69      1.0000 0.03620  0.52574  0.66312  Biso   1.000  O
  O70      1.0000 0.92173  0.39760  0.49654  Biso   1.000  O
  O71      1.0000 0.83196  0.24977  0.49217  Biso   1.000  O
  O72      1.0000 0.87012  0.22927  0.47652  Biso   1.000  O
  Zn8      1.0000 0.84476  0.16883  0.47234  Biso   1.000  Zn
  C265     1.0000 0.64003  0.87480  0.03670  Biso   1.000  C
  C266     1.0000 0.62828  0.90504  0.04016  Biso   1.000  C
  C267     1.0000 0.65121  0.93746  0.05469  Biso   1.000  C
  H217     1.0000 0.67073  0.93727  0.06367  Biso   1.000  H
  C268     1.0000 0.64481  0.96886  0.05560  Biso   1.000  C
  H218     1.0000 0.66013  0.99017  0.06517  Biso   1.000  H
  C269     1.0000 0.61659  0.96917  0.04284  Biso   1.000  C
  H219     1.0000 0.61253  0.99087  0.04357  Biso   1.000  H
  C270     1.0000 0.59293  0.93731  0.02841  Biso   1.000  C
  C271     1.0000 0.59903  0.90504  0.02713  Biso   1.000  C
  H220     1.0000 0.58363  0.88377  0.01757  Biso   1.000  H
  C272     1.0000 0.53956  0.91075  0.00174  Biso   1.000  C
  H221     1.0000 0.52283  0.88607  0.00967  Biso   1.000  H
  H222     1.0000 0.55483  0.90597  0.99047  Biso   1.000  H
  C273     1.0000 0.51410  0.92634  0.99072  Biso   1.000  C
  C274     1.0000 0.48477  0.92821  0.00320  Biso   1.000  C
  C275     1.0000 0.46569  0.94672  0.99371  Biso   1.000  C
  C276     1.0000 0.47231  0.95915  0.97173  Biso   1.000  C
  C277     1.0000 0.50072  0.95577  0.95935  Biso   1.000  C
  C278     1.0000 0.52399  0.94071  0.96947  Biso   1.000  C
  C279     1.0000 0.55741  0.94079  0.95625  Biso   1.000  C
  H223     1.0000 0.57943  0.94707  0.96607  Biso   1.000  H
  H224     1.0000 0.56593  0.96037  0.94447  Biso   1.000  H
  H225     1.0000 0.54813  0.91497  0.94977  Biso   1.000  H
  C280     1.0000 0.47306  0.91039  0.02636  Biso   1.000  C
  H226     1.0000 0.46953  0.88407  0.02627  Biso   1.000  H
  H227     1.0000 0.44853  0.90907  0.03067  Biso   1.000  H
  H228     1.0000 0.49363  0.92667  0.03687  Biso   1.000  H
  C281     1.0000 0.45007  0.97785  0.96153  Biso   1.000  C
  H229     1.0000 0.42593  0.96967  0.96977  Biso   1.000  H
  H230     1.0000 0.44373  0.96947  0.94617  Biso   1.000  H
  H231     1.0000 0.46633  0.00637  0.96217  Biso   1.000  H
  C282     1.0000 0.43745  0.95389  0.00743  Biso   1.000  C
  H232     1.0000 0.44393  0.95517  0.02327  Biso   1.000  H
  H233     1.0000 0.43953  0.97897  0.00317  Biso   1.000  H
  C283     1.0000 0.36787  0.92530  0.01390  Biso   1.000  C
  C284     1.0000 0.37488  0.95768  0.02719  Biso   1.000  C
  H234     1.0000 0.40083  0.97827  0.02947  Biso   1.000  H
  C285     1.0000 0.34313  0.95923  0.03699  Biso   1.000  C
  H235     1.0000 0.34783  0.98087  0.04587  Biso   1.000  H
  C286     1.0000 0.30438  0.92841  0.03352  Biso   1.000  C
  H236     1.0000 0.28313  0.92947  0.04007  Biso   1.000  H
  C287     1.0000 0.29737  0.89603  0.02023  Biso   1.000  C
  C288     1.0000 0.32912  0.89448  0.01043  Biso   1.000  C
  H237     1.0000 0.32443  0.87277  0.00157  Biso   1.000  H
  C289     1.0000 0.25628  0.86321  0.01619  Biso   1.000  C
  C290     1.0000 0.50913  0.97042  0.93543  Biso   1.000  C
  H238     1.0000 0.52023  0.95657  0.92727  Biso   1.000  H
  H239     1.0000 0.48453  0.96477  0.92807  Biso   1.000  H
  C291     1.0000 0.54242  0.03046  0.91518  Biso   1.000  C
  C292     1.0000 0.56905  0.07183  0.91623  Biso   1.000  C
  H240     1.0000 0.58063  0.08357  0.92987  Biso   1.000  H
  C293     1.0000 0.57808  0.09512  0.89716  Biso   1.000  C
  H241     1.0000 0.59503  0.12257  0.89797  Biso   1.000  H
  C294     1.0000 0.56115  0.07654  0.87656  Biso   1.000  C
  H242     1.0000 0.56783  0.09157  0.86347  Biso   1.000  H
  C295     1.0000 0.53485  0.03630  0.87580  Biso   1.000  C
  C296     1.0000 0.52642  0.01346  0.89541  Biso   1.000  C
  H243     1.0000 0.50943  0.98607  0.89467  Biso   1.000  H
  C297     1.0000 0.51604  0.01537  0.85426  Biso   1.000  C
  O73      1.0000 0.66951  0.87746  0.04714  Biso   1.000  O
  O74      1.0000 0.62281  0.84791  0.02302  Biso   1.000  O
  O75      1.0000 0.56579  0.94152  0.01716  Biso   1.000  O
  O76      1.0000 0.53588  0.01132  0.93498  Biso   1.000  O
  O77      1.0000 0.49168  0.97895  0.85524  Biso   1.000  O
  O78      1.0000 0.52574  0.03620  0.83688  Biso   1.000  O
  O79      1.0000 0.39760  0.92173  0.00346  Biso   1.000  O
  O80      1.0000 0.24977  0.83196  0.00783  Biso   1.000  O
  O81      1.0000 0.22927  0.87012  0.02348  Biso   1.000  O
  Zn9      1.0000 0.16883  0.84476  0.02766  Biso   1.000  Zn
  Zn10     1.0000 0.49784  0.00927  0.80567  Biso   1.000  Zn
  C298     1.0000 0.02663  0.56810  0.79664  Biso   1.000  C
  C299     1.0000 0.03838  0.61009  0.79318  Biso   1.000  C
  C300     1.0000 0.01545  0.61958  0.77865  Biso   1.000  C
  H244     1.0000 0.99593  0.59987  0.76967  Biso   1.000  H
  C301     1.0000 0.02185  0.65738  0.77774  Biso   1.000  C
  H245     1.0000 0.00653  0.66337  0.76817  Biso   1.000  H
  C302     1.0000 0.05007  0.68591  0.79050  Biso   1.000  C
  H246     1.0000 0.05413  0.71167  0.78977  Biso   1.000  H
  C303     1.0000 0.07373  0.67771  0.80493  Biso   1.000  C
  C304     1.0000 0.06763  0.63934  0.80621  Biso   1.000  C
  H247     1.0000 0.08303  0.63347  0.81577  Biso   1.000  H
  C305     1.0000 0.12710  0.70452  0.83160  Biso   1.000  C
  H248     1.0000 0.14383  0.69657  0.82367  Biso   1.000  H
  H249     1.0000 0.11183  0.68447  0.84287  Biso   1.000  H
  C306     1.0000 0.15256  0.74557  0.84262  Biso   1.000  C
  C307     1.0000 0.18189  0.77677  0.83014  Biso   1.000  C
  C308     1.0000 0.20097  0.81436  0.83963  Biso   1.000  C
  C309     1.0000 0.19435  0.82017  0.86161  Biso   1.000  C
  C310     1.0000 0.16594  0.78838  0.87399  Biso   1.000  C
  C311     1.0000 0.14267  0.75005  0.86387  Biso   1.000  C
  C312     1.0000 0.10925  0.71671  0.87709  Biso   1.000  C
  H250     1.0000 0.08723  0.70097  0.86727  Biso   1.000  H
  H251     1.0000 0.10073  0.72777  0.88887  Biso   1.000  H
  H252     1.0000 0.11853  0.70017  0.88357  Biso   1.000  H
  C313     1.0000 0.19360  0.77066  0.80698  Biso   1.000  C
  H253     1.0000 0.19713  0.74787  0.80707  Biso   1.000  H
  H254     1.0000 0.21813  0.79387  0.80267  Biso   1.000  H
  H255     1.0000 0.17303  0.76637  0.79647  Biso   1.000  H
  C314     1.0000 0.21659  0.86111  0.87181  Biso   1.000  C
  H256     1.0000 0.24073  0.87707  0.86357  Biso   1.000  H
  H257     1.0000 0.22293  0.85907  0.88717  Biso   1.000  H
  H258     1.0000 0.20033  0.87337  0.87117  Biso   1.000  H
  C315     1.0000 0.22921  0.84977  0.82591  Biso   1.000  C
  H259     1.0000 0.22273  0.84457  0.81007  Biso   1.000  H
  H260     1.0000 0.22713  0.87277  0.83017  Biso   1.000  H
  C316     1.0000 0.29879  0.89076  0.81944  Biso   1.000  C
  C317     1.0000 0.29178  0.91613  0.80615  Biso   1.000  C
  H261     1.0000 0.26583  0.91077  0.80387  Biso   1.000  H
  C318     1.0000 0.32353  0.94943  0.79635  Biso   1.000  C
  H262     1.0000 0.31883  0.96637  0.78747  Biso   1.000  H
  C319     1.0000 0.36228  0.95736  0.79982  Biso   1.000  C
  H263     1.0000 0.38353  0.97967  0.79327  Biso   1.000  H
  C320     1.0000 0.36929  0.93199  0.81311  Biso   1.000  C
  C321     1.0000 0.33754  0.89869  0.82291  Biso   1.000  C
  H264     1.0000 0.34223  0.88167  0.83177  Biso   1.000  H
  C322     1.0000 0.41038  0.94026  0.81715  Biso   1.000  C
  C323     1.0000 0.15753  0.79462  0.89791  Biso   1.000  C
  H265     1.0000 0.14643  0.76967  0.90607  Biso   1.000  H
  H266     1.0000 0.18213  0.81357  0.90527  Biso   1.000  H
  C324     1.0000 0.12424  0.82137  0.91816  Biso   1.000  C
  C325     1.0000 0.09761  0.83611  0.91711  Biso   1.000  C
  H267     1.0000 0.08603  0.83627  0.90347  Biso   1.000  H
  C326     1.0000 0.08858  0.85037  0.93618  Biso   1.000  C
  H268     1.0000 0.07163  0.86087  0.93537  Biso   1.000  H
  C327     1.0000 0.10551  0.84872  0.95678  Biso   1.000  C
  H269     1.0000 0.09883  0.85707  0.96987  Biso   1.000  H
  C328     1.0000 0.13181  0.83478  0.95754  Biso   1.000  C
  C329     1.0000 0.14024  0.82037  0.93793  Biso   1.000  C
  H270     1.0000 0.15723  0.80997  0.93867  Biso   1.000  H
  C330     1.0000 0.15062  0.83266  0.97908  Biso   1.000  C
  O82      1.0000 0.99715  0.54128  0.78620  Biso   1.000  O
  O83      1.0000 0.04385  0.55843  0.81032  Biso   1.000  O
  O84      1.0000 0.10087  0.70906  0.81618  Biso   1.000  O
  O85      1.0000 0.13078  0.80877  0.89836  Biso   1.000  O
  O86      1.0000 0.17498  0.82060  0.97810  Biso   1.000  O
  O87      1.0000 0.14092  0.84379  0.99646  Biso   1.000  O
  O88      1.0000 0.26906  0.85746  0.82988  Biso   1.000  O
  O89      1.0000 0.41689  0.91552  0.82551  Biso   1.000  O
  O90      1.0000 0.43739  0.97418  0.80986  Biso   1.000  O
  Zn11     1.0000 0.67593  0.83117  0.02766  Biso   1.000  Zn
  C331     1.0000 0.23476  0.35997  0.03670  Biso   1.000  C
  C332     1.0000 0.27675  0.37172  0.04016  Biso   1.000  C
  C333     1.0000 0.28624  0.34879  0.05469  Biso   1.000  C
  H271     1.0000 0.26653  0.32927  0.06367  Biso   1.000  H
  C334     1.0000 0.32404  0.35519  0.05560  Biso   1.000  C
  H272     1.0000 0.33003  0.33987  0.06517  Biso   1.000  H
  C335     1.0000 0.35257  0.38341  0.04284  Biso   1.000  C
  H273     1.0000 0.37833  0.38747  0.04357  Biso   1.000  H
  C336     1.0000 0.34437  0.40707  0.02841  Biso   1.000  C
  C337     1.0000 0.30600  0.40097  0.02713  Biso   1.000  C
  H274     1.0000 0.30013  0.41637  0.01757  Biso   1.000  H
  C338     1.0000 0.37118  0.46044  0.00174  Biso   1.000  C
  H275     1.0000 0.36323  0.47717  0.00967  Biso   1.000  H
  H276     1.0000 0.35113  0.44517  0.99047  Biso   1.000  H
  C339     1.0000 0.41223  0.48590  0.99072  Biso   1.000  C
  C340     1.0000 0.44343  0.51523  0.00320  Biso   1.000  C
  C341     1.0000 0.48102  0.53431  0.99371  Biso   1.000  C
  C342     1.0000 0.48683  0.52769  0.97173  Biso   1.000  C
  C343     1.0000 0.45504  0.49928  0.95935  Biso   1.000  C
  C344     1.0000 0.41671  0.47601  0.96947  Biso   1.000  C
  C345     1.0000 0.38337  0.44259  0.95625  Biso   1.000  C
  H277     1.0000 0.36763  0.42057  0.96607  Biso   1.000  H
  H278     1.0000 0.39443  0.43407  0.94447  Biso   1.000  H
  H279     1.0000 0.36683  0.45187  0.94977  Biso   1.000  H
  C346     1.0000 0.43732  0.52694  0.02636  Biso   1.000  C
  H280     1.0000 0.41453  0.53047  0.02627  Biso   1.000  H
  H281     1.0000 0.46053  0.55147  0.03067  Biso   1.000  H
  H282     1.0000 0.43303  0.50637  0.03687  Biso   1.000  H
  C347     1.0000 0.52777  0.54993  0.96153  Biso   1.000  C
  H283     1.0000 0.54373  0.57407  0.96977  Biso   1.000  H
  H284     1.0000 0.52573  0.55627  0.94617  Biso   1.000  H
  H285     1.0000 0.54003  0.53367  0.96217  Biso   1.000  H
  C348     1.0000 0.51643  0.56255  0.00743  Biso   1.000  C
  H286     1.0000 0.51123  0.55607  0.02327  Biso   1.000  H
  H287     1.0000 0.53943  0.56047  0.00317  Biso   1.000  H
  C349     1.0000 0.55742  0.63213  0.01390  Biso   1.000  C
  C350     1.0000 0.58279  0.62512  0.02719  Biso   1.000  C
  H288     1.0000 0.57743  0.59917  0.02947  Biso   1.000  H
  C351     1.0000 0.61609  0.65687  0.03699  Biso   1.000  C
  H289     1.0000 0.63303  0.65217  0.04587  Biso   1.000  H
  C352     1.0000 0.62402  0.69562  0.03352  Biso   1.000  C
  H290     1.0000 0.64633  0.71687  0.04007  Biso   1.000  H
  C353     1.0000 0.59865  0.70263  0.02023  Biso   1.000  C
  C354     1.0000 0.56535  0.67088  0.01043  Biso   1.000  C
  H291     1.0000 0.54833  0.67557  0.00157  Biso   1.000  H
  C355     1.0000 0.60692  0.74372  0.01619  Biso   1.000  C
  C356     1.0000 0.46128  0.49087  0.93543  Biso   1.000  C
  H292     1.0000 0.43633  0.47977  0.92727  Biso   1.000  H
  H293     1.0000 0.48023  0.51547  0.92807  Biso   1.000  H
  C357     1.0000 0.48803  0.45758  0.91518  Biso   1.000  C
  C358     1.0000 0.50277  0.43095  0.91623  Biso   1.000  C
  H294     1.0000 0.50293  0.41937  0.92987  Biso   1.000  H
  C359     1.0000 0.51703  0.42192  0.89716  Biso   1.000  C
  H295     1.0000 0.52753  0.40497  0.89797  Biso   1.000  H
  C360     1.0000 0.51538  0.43885  0.87656  Biso   1.000  C
  H296     1.0000 0.52373  0.43217  0.86347  Biso   1.000  H
  C361     1.0000 0.50144  0.46515  0.87580  Biso   1.000  C
  C362     1.0000 0.48703  0.47358  0.89541  Biso   1.000  C
  H297     1.0000 0.47663  0.49057  0.89467  Biso   1.000  H
  C363     1.0000 0.49932  0.48396  0.85426  Biso   1.000  C
  O91      1.0000 0.20794  0.33049  0.04714  Biso   1.000  O
  O92      1.0000 0.22509  0.37719  0.02302  Biso   1.000  O
  O93      1.0000 0.37572  0.43421  0.01716  Biso   1.000  O
  O94      1.0000 0.47543  0.46412  0.93498  Biso   1.000  O
  O95      1.0000 0.48726  0.50832  0.85524  Biso   1.000  O
  O96      1.0000 0.51045  0.47426  0.83688  Biso   1.000  O
  O97      1.0000 0.52412  0.60240  0.00346  Biso   1.000  O
  O98      1.0000 0.58218  0.75023  0.00783  Biso   1.000  O
  O99      1.0000 0.64084  0.77073  0.02348  Biso   1.000  O
  C364     1.0000 0.54146  0.97337  0.79664  Biso   1.000  C
  C365     1.0000 0.57170  0.96162  0.79318  Biso   1.000  C
  C366     1.0000 0.60412  0.98455  0.77865  Biso   1.000  C
  H298     1.0000 0.60393  0.00407  0.76967  Biso   1.000  H
  C367     1.0000 0.63552  0.97815  0.77774  Biso   1.000  C
  H299     1.0000 0.65683  0.99347  0.76817  Biso   1.000  H
  C368     1.0000 0.63583  0.94993  0.79050  Biso   1.000  C
  H300     1.0000 0.65753  0.94587  0.78977  Biso   1.000  H
  C369     1.0000 0.60397  0.92627  0.80493  Biso   1.000  C
  C370     1.0000 0.57170  0.93237  0.80621  Biso   1.000  C
  H301     1.0000 0.55043  0.91697  0.81577  Biso   1.000  H
  C371     1.0000 0.57741  0.87290  0.83160  Biso   1.000  C
  H302     1.0000 0.55273  0.85617  0.82367  Biso   1.000  H
  H303     1.0000 0.57263  0.88817  0.84287  Biso   1.000  H
  C372     1.0000 0.59300  0.84744  0.84262  Biso   1.000  C
  C373     1.0000 0.59487  0.81811  0.83014  Biso   1.000  C
  C374     1.0000 0.61338  0.79903  0.83963  Biso   1.000  C
  C375     1.0000 0.62581  0.80565  0.86161  Biso   1.000  C
  C376     1.0000 0.62243  0.83406  0.87399  Biso   1.000  C
  C377     1.0000 0.60737  0.85733  0.86387  Biso   1.000  C
  C378     1.0000 0.60745  0.89075  0.87709  Biso   1.000  C
  H304     1.0000 0.61373  0.91277  0.86727  Biso   1.000  H
  H305     1.0000 0.62703  0.89927  0.88887  Biso   1.000  H
  H306     1.0000 0.58163  0.88147  0.88357  Biso   1.000  H
  C379     1.0000 0.57705  0.80640  0.80698  Biso   1.000  C
  H307     1.0000 0.55073  0.80287  0.80707  Biso   1.000  H
  H308     1.0000 0.57573  0.78187  0.80267  Biso   1.000  H
  H309     1.0000 0.59333  0.82697  0.79647  Biso   1.000  H
  C380     1.0000 0.64451  0.78341  0.87181  Biso   1.000  C
  H310     1.0000 0.63633  0.75927  0.86357  Biso   1.000  H
  H311     1.0000 0.63613  0.77707  0.88717  Biso   1.000  H
  H312     1.0000 0.67303  0.79967  0.87117  Biso   1.000  H
  C381     1.0000 0.62055  0.77079  0.82591  Biso   1.000  C
  H313     1.0000 0.62183  0.77727  0.81007  Biso   1.000  H
  H314     1.0000 0.64563  0.77287  0.83017  Biso   1.000  H
  C382     1.0000 0.59196  0.70121  0.81944  Biso   1.000  C
  C383     1.0000 0.62434  0.70822  0.80615  Biso   1.000  C
  H315     1.0000 0.64493  0.73417  0.80387  Biso   1.000  H
  C384     1.0000 0.62589  0.67647  0.79635  Biso   1.000  C
  H316     1.0000 0.64753  0.68117  0.78747  Biso   1.000  H
  C385     1.0000 0.59507  0.63772  0.79982  Biso   1.000  C
  H317     1.0000 0.59613  0.61647  0.79327  Biso   1.000  H
  C386     1.0000 0.56269  0.63071  0.81311  Biso   1.000  C
  C387     1.0000 0.56114  0.66246  0.82291  Biso   1.000  C
  H318     1.0000 0.53943  0.65777  0.83177  Biso   1.000  H
  C388     1.0000 0.52987  0.58962  0.81715  Biso   1.000  C
  C389     1.0000 0.63708  0.84247  0.89791  Biso   1.000  C
  H319     1.0000 0.62323  0.85357  0.90607  Biso   1.000  H
  H320     1.0000 0.63143  0.81787  0.90527  Biso   1.000  H
  C390     1.0000 0.69712  0.87576  0.91816  Biso   1.000  C
  C391     1.0000 0.73849  0.90239  0.91711  Biso   1.000  C
  H321     1.0000 0.75023  0.91397  0.90347  Biso   1.000  H
  C392     1.0000 0.76178  0.91142  0.93618  Biso   1.000  C
  H322     1.0000 0.78923  0.92837  0.93537  Biso   1.000  H
  C393     1.0000 0.74320  0.89449  0.95678  Biso   1.000  C
  H323     1.0000 0.75823  0.90117  0.96987  Biso   1.000  H
  C394     1.0000 0.70296  0.86819  0.95754  Biso   1.000  C
  C395     1.0000 0.68012  0.85976  0.93793  Biso   1.000  C
  H324     1.0000 0.65273  0.84277  0.93867  Biso   1.000  H
  C396     1.0000 0.68203  0.84938  0.97908  Biso   1.000  C
  O100     1.0000 0.54412  0.00285  0.78620  Biso   1.000  O
  O101     1.0000 0.51457  0.95615  0.81032  Biso   1.000  O
  O102     1.0000 0.60818  0.89913  0.81618  Biso   1.000  O
  O103     1.0000 0.67798  0.86922  0.89836  Biso   1.000  O
  O104     1.0000 0.64561  0.82502  0.97810  Biso   1.000  O
  O105     1.0000 0.70286  0.85908  0.99646  Biso   1.000  O
  O106     1.0000 0.58839  0.73094  0.82988  Biso   1.000  O
  O107     1.0000 0.49862  0.58311  0.82551  Biso   1.000  O
  O108     1.0000 0.53678  0.56261  0.80986  Biso   1.000  O
  Zn12     1.0000 0.51143  0.50216  0.80567  Biso   1.000  Zn
  C397     1.0000 0.79187  0.09857  0.37003  Biso   1.000  C
  C398     1.0000 0.76163  0.05658  0.37349  Biso   1.000  C
  C399     1.0000 0.72921  0.04709  0.38802  Biso   1.000  C
  H325     1.0000 0.72940  0.06680  0.39700  Biso   1.000  H
  C400     1.0000 0.69781  0.00929  0.38893  Biso   1.000  C
  H326     1.0000 0.67650  0.00330  0.39850  Biso   1.000  H
  C401     1.0000 0.69750  0.98076  0.37617  Biso   1.000  C
  H327     1.0000 0.67580  0.95500  0.37690  Biso   1.000  H
  C402     1.0000 0.72936  0.98896  0.36174  Biso   1.000  C
  C403     1.0000 0.76163  0.02733  0.36046  Biso   1.000  C
  H328     1.0000 0.78290  0.03320  0.35090  Biso   1.000  H
  C404     1.0000 0.75592  0.96215  0.33507  Biso   1.000  C
  H329     1.0000 0.78060  0.97010  0.34300  Biso   1.000  H
  H330     1.0000 0.76070  0.98220  0.32380  Biso   1.000  H
  C405     1.0000 0.74033  0.92110  0.32405  Biso   1.000  C
  C406     1.0000 0.73846  0.88990  0.33653  Biso   1.000  C
  C407     1.0000 0.71995  0.85231  0.32704  Biso   1.000  C
  C408     1.0000 0.70752  0.84650  0.30506  Biso   1.000  C
  C409     1.0000 0.71090  0.87829  0.29268  Biso   1.000  C
  C410     1.0000 0.72596  0.91662  0.30280  Biso   1.000  C
  C411     1.0000 0.72588  0.94996  0.28958  Biso   1.000  C
  H331     1.0000 0.71960  0.96570  0.29940  Biso   1.000  H
  H332     1.0000 0.70630  0.93890  0.27780  Biso   1.000  H
  H333     1.0000 0.75170  0.96650  0.28310  Biso   1.000  H
  C412     1.0000 0.75628  0.89601  0.35969  Biso   1.000  C
  H334     1.0000 0.78260  0.91880  0.35960  Biso   1.000  H
  H335     1.0000 0.75760  0.87280  0.36400  Biso   1.000  H
  H336     1.0000 0.74000  0.90030  0.37020  Biso   1.000  H
  C413     1.0000 0.68882  0.80556  0.29486  Biso   1.000  C
  H337     1.0000 0.69700  0.78960  0.30310  Biso   1.000  H
  H338     1.0000 0.69720  0.80760  0.27950  Biso   1.000  H
  H339     1.0000 0.66030  0.79330  0.29550  Biso   1.000  H
  C414     1.0000 0.71278  0.81690  0.34076  Biso   1.000  C
  H340     1.0000 0.71150  0.82210  0.35660  Biso   1.000  H
  H341     1.0000 0.68770  0.79390  0.33650  Biso   1.000  H
  C415     1.0000 0.74137  0.77591  0.34723  Biso   1.000  C
  C416     1.0000 0.70899  0.75054  0.36052  Biso   1.000  C
  H342     1.0000 0.68840  0.75590  0.36280  Biso   1.000  H
  C417     1.0000 0.70744  0.71724  0.37032  Biso   1.000  C
  H343     1.0000 0.68580  0.70030  0.37920  Biso   1.000  H
  C418     1.0000 0.73826  0.70931  0.36685  Biso   1.000  C
  H344     1.0000 0.73720  0.68700  0.37340  Biso   1.000  H
  C419     1.0000 0.77064  0.73468  0.35356  Biso   1.000  C
  C420     1.0000 0.77219  0.76798  0.34376  Biso   1.000  C
  H345     1.0000 0.79390  0.78500  0.33490  Biso   1.000  H
  C421     1.0000 0.80346  0.72641  0.34952  Biso   1.000  C
  C422     1.0000 0.69625  0.87205  0.26876  Biso   1.000  C
  H346     1.0000 0.71010  0.89700  0.26060  Biso   1.000  H
  H347     1.0000 0.70190  0.85310  0.26140  Biso   1.000  H
  C423     1.0000 0.63621  0.84530  0.24851  Biso   1.000  C
  C424     1.0000 0.59484  0.83056  0.24956  Biso   1.000  C
  H348     1.0000 0.58310  0.83040  0.26320  Biso   1.000  H
  C425     1.0000 0.57155  0.81630  0.23049  Biso   1.000  C
  H349     1.0000 0.54410  0.80580  0.23130  Biso   1.000  H
  C426     1.0000 0.59013  0.81795  0.20989  Biso   1.000  C
  H350     1.0000 0.57510  0.80960  0.19680  Biso   1.000  H
  C427     1.0000 0.63037  0.83189  0.20913  Biso   1.000  C
  C428     1.0000 0.65321  0.84630  0.22874  Biso   1.000  C
  H351     1.0000 0.68060  0.85670  0.22800  Biso   1.000  H
  C429     1.0000 0.65130  0.83401  0.18759  Biso   1.000  C
  O109     1.0000 0.78921  0.12539  0.38047  Biso   1.000  O
  O110     1.0000 0.81876  0.10824  0.35635  Biso   1.000  O
  O111     1.0000 0.72515  0.95761  0.35049  Biso   1.000  O
  O112     1.0000 0.65535  0.85790  0.26831  Biso   1.000  O
  O113     1.0000 0.68772  0.84607  0.18857  Biso   1.000  O
  O114     1.0000 0.63047  0.82288  0.17021  Biso   1.000  O
  O115     1.0000 0.74494  0.80921  0.33679  Biso   1.000  O
  O116     1.0000 0.83471  0.75115  0.34116  Biso   1.000  O
  O117     1.0000 0.79655  0.69249  0.35681  Biso   1.000  O
  Zn13     1.0000 0.82191  0.65740  0.36099  Biso   1.000  Zn
  C430     1.0000 0.09857  0.79187  0.12997  Biso   1.000  C
  C431     1.0000 0.05658  0.76163  0.12651  Biso   1.000  C
  C432     1.0000 0.04709  0.72921  0.11198  Biso   1.000  C
  H352     1.0000 0.06680  0.72940  0.10300  Biso   1.000  H
  C433     1.0000 0.00929  0.69781  0.11107  Biso   1.000  C
  H353     1.0000 0.00330  0.67650  0.10150  Biso   1.000  H
  C434     1.0000 0.98076  0.69750  0.12383  Biso   1.000  C
  H354     1.0000 0.95500  0.67580  0.12310  Biso   1.000  H
  C435     1.0000 0.98896  0.72936  0.13826  Biso   1.000  C
  C436     1.0000 0.02733  0.76163  0.13954  Biso   1.000  C
  H355     1.0000 0.03320  0.78290  0.14910  Biso   1.000  H
  C437     1.0000 0.96215  0.75592  0.16493  Biso   1.000  C
  H356     1.0000 0.97010  0.78060  0.15700  Biso   1.000  H
  H357     1.0000 0.98220  0.76070  0.17620  Biso   1.000  H
  C438     1.0000 0.92110  0.74033  0.17595  Biso   1.000  C
  C439     1.0000 0.88990  0.73846  0.16347  Biso   1.000  C
  C440     1.0000 0.85231  0.71995  0.17296  Biso   1.000  C
  C441     1.0000 0.84650  0.70752  0.19494  Biso   1.000  C
  C442     1.0000 0.87829  0.71090  0.20732  Biso   1.000  C
  C443     1.0000 0.91662  0.72596  0.19720  Biso   1.000  C
  C444     1.0000 0.94996  0.72588  0.21042  Biso   1.000  C
  H358     1.0000 0.96570  0.71960  0.20060  Biso   1.000  H
  H359     1.0000 0.93890  0.70630  0.22220  Biso   1.000  H
  H360     1.0000 0.96650  0.75170  0.21690  Biso   1.000  H
  C445     1.0000 0.89601  0.75628  0.14031  Biso   1.000  C
  H361     1.0000 0.91880  0.78260  0.14040  Biso   1.000  H
  H362     1.0000 0.87280  0.75760  0.13600  Biso   1.000  H
  H363     1.0000 0.90030  0.74000  0.12980  Biso   1.000  H
  C446     1.0000 0.80556  0.68882  0.20514  Biso   1.000  C
  H364     1.0000 0.78960  0.69700  0.19690  Biso   1.000  H
  H365     1.0000 0.80760  0.69720  0.22050  Biso   1.000  H
  H366     1.0000 0.79330  0.66030  0.20450  Biso   1.000  H
  C447     1.0000 0.81690  0.71278  0.15924  Biso   1.000  C
  H367     1.0000 0.82210  0.71150  0.14340  Biso   1.000  H
  H368     1.0000 0.79390  0.68770  0.16350  Biso   1.000  H
  C448     1.0000 0.77591  0.74137  0.15277  Biso   1.000  C
  C449     1.0000 0.75054  0.70899  0.13948  Biso   1.000  C
  H369     1.0000 0.75590  0.68840  0.13720  Biso   1.000  H
  C450     1.0000 0.71724  0.70744  0.12968  Biso   1.000  C
  H370     1.0000 0.70030  0.68580  0.12080  Biso   1.000  H
  C451     1.0000 0.70931  0.73826  0.13315  Biso   1.000  C
  H371     1.0000 0.68700  0.73720  0.12660  Biso   1.000  H
  C452     1.0000 0.73468  0.77064  0.14644  Biso   1.000  C
  C453     1.0000 0.76798  0.77219  0.15624  Biso   1.000  C
  H372     1.0000 0.78500  0.79390  0.16510  Biso   1.000  H
  C454     1.0000 0.72641  0.80346  0.15048  Biso   1.000  C
  C455     1.0000 0.87205  0.69625  0.23124  Biso   1.000  C
  H373     1.0000 0.89700  0.71010  0.23940  Biso   1.000  H
  H374     1.0000 0.85310  0.70190  0.23860  Biso   1.000  H
  C456     1.0000 0.84530  0.63621  0.25149  Biso   1.000  C
  C457     1.0000 0.83056  0.59484  0.25044  Biso   1.000  C
  H375     1.0000 0.83040  0.58310  0.23680  Biso   1.000  H
  C458     1.0000 0.81630  0.57155  0.26951  Biso   1.000  C
  H376     1.0000 0.80580  0.54410  0.26870  Biso   1.000  H
  C459     1.0000 0.81795  0.59013  0.29011  Biso   1.000  C
  H377     1.0000 0.80960  0.57510  0.30320  Biso   1.000  H
  C460     1.0000 0.83189  0.63037  0.29087  Biso   1.000  C
  C461     1.0000 0.84630  0.65321  0.27126  Biso   1.000  C
  H378     1.0000 0.85670  0.68060  0.27200  Biso   1.000  H
  C462     1.0000 0.83401  0.65130  0.31241  Biso   1.000  C
  O118     1.0000 0.12539  0.78921  0.11953  Biso   1.000  O
  O119     1.0000 0.10824  0.81876  0.14365  Biso   1.000  O
  O120     1.0000 0.95761  0.72515  0.14951  Biso   1.000  O
  O121     1.0000 0.85790  0.65535  0.23169  Biso   1.000  O
  O122     1.0000 0.84607  0.68772  0.31143  Biso   1.000  O
  O123     1.0000 0.82288  0.63047  0.32979  Biso   1.000  O
  O124     1.0000 0.80921  0.74494  0.16321  Biso   1.000  O
  O125     1.0000 0.75115  0.83471  0.15884  Biso   1.000  O
  O126     1.0000 0.69249  0.79655  0.14319  Biso   1.000  O
  Zn14     1.0000 0.65740  0.82191  0.13901  Biso   1.000  Zn
  C463     1.0000 0.45854  0.43190  0.70336  Biso   1.000  C
  C464     1.0000 0.42830  0.38991  0.70682  Biso   1.000  C
  C465     1.0000 0.39588  0.38042  0.72135  Biso   1.000  C
  H379     1.0000 0.39607  0.40013  0.73033  Biso   1.000  H
  C466     1.0000 0.36448  0.34262  0.72226  Biso   1.000  C
  H380     1.0000 0.34317  0.33663  0.73183  Biso   1.000  H
  C467     1.0000 0.36417  0.31409  0.70950  Biso   1.000  C
  H381     1.0000 0.34247  0.28833  0.71023  Biso   1.000  H
  C468     1.0000 0.39603  0.32229  0.69507  Biso   1.000  C
  C469     1.0000 0.42830  0.36066  0.69379  Biso   1.000  C
  H382     1.0000 0.44957  0.36653  0.68423  Biso   1.000  H
  C470     1.0000 0.42259  0.29548  0.66840  Biso   1.000  C
  H383     1.0000 0.44727  0.30343  0.67633  Biso   1.000  H
  H384     1.0000 0.42737  0.31553  0.65713  Biso   1.000  H
  C471     1.0000 0.40700  0.25443  0.65738  Biso   1.000  C
  C472     1.0000 0.40513  0.22323  0.66986  Biso   1.000  C
  C473     1.0000 0.38662  0.18564  0.66037  Biso   1.000  C
  C474     1.0000 0.37419  0.17983  0.63839  Biso   1.000  C
  C475     1.0000 0.37757  0.21162  0.62601  Biso   1.000  C
  C476     1.0000 0.39263  0.24995  0.63613  Biso   1.000  C
  C477     1.0000 0.39255  0.28329  0.62291  Biso   1.000  C
  H385     1.0000 0.38627  0.29903  0.63273  Biso   1.000  H
  H386     1.0000 0.37297  0.27223  0.61113  Biso   1.000  H
  H387     1.0000 0.41837  0.29983  0.61643  Biso   1.000  H
  C478     1.0000 0.42295  0.22934  0.69302  Biso   1.000  C
  H388     1.0000 0.44927  0.25213  0.69293  Biso   1.000  H
  H389     1.0000 0.42427  0.20613  0.69733  Biso   1.000  H
  H390     1.0000 0.40667  0.23363  0.70353  Biso   1.000  H
  C479     1.0000 0.35549  0.13889  0.62819  Biso   1.000  C
  H391     1.0000 0.36367  0.12293  0.63643  Biso   1.000  H
  H392     1.0000 0.36387  0.14093  0.61283  Biso   1.000  H
  H393     1.0000 0.32697  0.12663  0.62883  Biso   1.000  H
  C480     1.0000 0.37945  0.15023  0.67409  Biso   1.000  C
  H394     1.0000 0.37817  0.15543  0.68993  Biso   1.000  H
  H395     1.0000 0.35437  0.12723  0.66983  Biso   1.000  H
  C481     1.0000 0.40804  0.10924  0.68056  Biso   1.000  C
  C482     1.0000 0.37566  0.08387  0.69385  Biso   1.000  C
  H396     1.0000 0.35507  0.08923  0.69613  Biso   1.000  H
  C483     1.0000 0.37411  0.05057  0.70365  Biso   1.000  C
  H397     1.0000 0.35247  0.03363  0.71253  Biso   1.000  H
  C484     1.0000 0.40493  0.04264  0.70018  Biso   1.000  C
  H398     1.0000 0.40387  0.02033  0.70673  Biso   1.000  H
  C485     1.0000 0.43731  0.06801  0.68689  Biso   1.000  C
  C486     1.0000 0.43886  0.10131  0.67709  Biso   1.000  C
  H399     1.0000 0.46057  0.11833  0.66823  Biso   1.000  H
  C487     1.0000 0.47013  0.05974  0.68285  Biso   1.000  C
  C488     1.0000 0.36292  0.20538  0.60209  Biso   1.000  C
  H400     1.0000 0.37677  0.23033  0.59393  Biso   1.000  H
  H401     1.0000 0.36857  0.18643  0.59473  Biso   1.000  H
  C489     1.0000 0.30288  0.17863  0.58184  Biso   1.000  C
  C490     1.0000 0.26151  0.16389  0.58289  Biso   1.000  C
  H402     1.0000 0.24977  0.16373  0.59653  Biso   1.000  H
  C491     1.0000 0.23822  0.14963  0.56382  Biso   1.000  C
  H403     1.0000 0.21077  0.13913  0.56463  Biso   1.000  H
  C492     1.0000 0.25680  0.15128  0.54322  Biso   1.000  C
  H404     1.0000 0.24177  0.14293  0.53013  Biso   1.000  H
  C493     1.0000 0.29704  0.16522  0.54246  Biso   1.000  C
  C494     1.0000 0.31988  0.17963  0.56207  Biso   1.000  C
  H405     1.0000 0.34727  0.19003  0.56133  Biso   1.000  H
  C495     1.0000 0.31797  0.16734  0.52092  Biso   1.000  C
  O127     1.0000 0.45588  0.45872  0.71380  Biso   1.000  O
  O128     1.0000 0.48543  0.44157  0.68968  Biso   1.000  O
  O129     1.0000 0.39182  0.29094  0.68382  Biso   1.000  O
  O130     1.0000 0.32202  0.19123  0.60164  Biso   1.000  O
  O131     1.0000 0.35439  0.17940  0.52190  Biso   1.000  O
  O132     1.0000 0.29714  0.15621  0.50354  Biso   1.000  O
  O133     1.0000 0.41161  0.14254  0.67012  Biso   1.000  O
  O134     1.0000 0.50138  0.08448  0.67449  Biso   1.000  O
  O135     1.0000 0.46322  0.02582  0.69014  Biso   1.000  O
  Zn15     1.0000 0.48857  0.99073  0.69433  Biso   1.000  Zn
  C496     1.0000 0.76524  0.12520  0.46330  Biso   1.000  C
  C497     1.0000 0.72325  0.09496  0.45984  Biso   1.000  C
  C498     1.0000 0.71376  0.06254  0.44531  Biso   1.000  C
  H406     1.0000 0.73347  0.06273  0.43633  Biso   1.000  H
  C499     1.0000 0.67596  0.03114  0.44440  Biso   1.000  C
  H407     1.0000 0.66997  0.00983  0.43483  Biso   1.000  H
  C500     1.0000 0.64743  0.03083  0.45716  Biso   1.000  C
  H408     1.0000 0.62167  0.00913  0.45643  Biso   1.000  H
  C501     1.0000 0.65563  0.06269  0.47159  Biso   1.000  C
  C502     1.0000 0.69400  0.09496  0.47287  Biso   1.000  C
  H409     1.0000 0.69987  0.11623  0.48243  Biso   1.000  H
  C503     1.0000 0.62882  0.08925  0.49826  Biso   1.000  C
  H410     1.0000 0.63677  0.11393  0.49033  Biso   1.000  H
  H411     1.0000 0.64887  0.09403  0.50953  Biso   1.000  H
  C504     1.0000 0.58777  0.07366  0.50928  Biso   1.000  C
  C505     1.0000 0.55657  0.07179  0.49680  Biso   1.000  C
  C506     1.0000 0.51898  0.05328  0.50629  Biso   1.000  C
  C507     1.0000 0.51317  0.04085  0.52827  Biso   1.000  C
  C508     1.0000 0.54496  0.04423  0.54065  Biso   1.000  C
  C509     1.0000 0.58329  0.05929  0.53053  Biso   1.000  C
  C510     1.0000 0.61663  0.05921  0.54375  Biso   1.000  C
  H412     1.0000 0.63237  0.05293  0.53393  Biso   1.000  H
  H413     1.0000 0.60557  0.03963  0.55553  Biso   1.000  H
  H414     1.0000 0.63317  0.08503  0.55023  Biso   1.000  H
  C511     1.0000 0.56268  0.08961  0.47364  Biso   1.000  C
  H415     1.0000 0.58547  0.11593  0.47373  Biso   1.000  H
  H416     1.0000 0.53947  0.09093  0.46933  Biso   1.000  H
  H417     1.0000 0.56697  0.07333  0.46313  Biso   1.000  H
  C512     1.0000 0.47223  0.02215  0.53847  Biso   1.000  C
  H418     1.0000 0.45627  0.03033  0.53023  Biso   1.000  H
  H419     1.0000 0.47427  0.03053  0.55383  Biso   1.000  H
  H420     1.0000 0.45997  0.99363  0.53783  Biso   1.000  H
  C513     1.0000 0.48357  0.04611  0.49257  Biso   1.000  C
  H421     1.0000 0.48877  0.04483  0.47673  Biso   1.000  H
  H422     1.0000 0.46057  0.02103  0.49683  Biso   1.000  H
  C514     1.0000 0.44258  0.07470  0.48610  Biso   1.000  C
  C515     1.0000 0.41721  0.04232  0.47281  Biso   1.000  C
  H423     1.0000 0.42257  0.02173  0.47053  Biso   1.000  H
  C516     1.0000 0.38391  0.04077  0.46301  Biso   1.000  C
  H424     1.0000 0.36697  0.01913  0.45413  Biso   1.000  H
  C517     1.0000 0.37598  0.07159  0.46648  Biso   1.000  C
  H425     1.0000 0.35367  0.07053  0.45993  Biso   1.000  H
  C518     1.0000 0.40135  0.10397  0.47977  Biso   1.000  C
  C519     1.0000 0.43465  0.10552  0.48957  Biso   1.000  C
  H426     1.0000 0.45167  0.12723  0.49843  Biso   1.000  H
  C520     1.0000 0.39308  0.13679  0.48381  Biso   1.000  C
  C521     1.0000 0.53872  0.02958  0.56457  Biso   1.000  C
  H427     1.0000 0.56367  0.04343  0.57273  Biso   1.000  H
  H428     1.0000 0.51977  0.03523  0.57193  Biso   1.000  H
  C522     1.0000 0.51197  0.96954  0.58482  Biso   1.000  C
  C523     1.0000 0.49723  0.92817  0.58377  Biso   1.000  C
  H429     1.0000 0.49707  0.91643  0.57013  Biso   1.000  H
  C524     1.0000 0.48297  0.90488  0.60284  Biso   1.000  C
  H430     1.0000 0.47247  0.87743  0.60203  Biso   1.000  H
  C525     1.0000 0.48462  0.92346  0.62344  Biso   1.000  C
  H431     1.0000 0.47627  0.90843  0.63653  Biso   1.000  H
  C526     1.0000 0.49856  0.96370  0.62420  Biso   1.000  C
  C527     1.0000 0.51297  0.98654  0.60459  Biso   1.000  C
  H432     1.0000 0.52337  0.01393  0.60533  Biso   1.000  H
  C528     1.0000 0.50068  0.98463  0.64574  Biso   1.000  C
  O136     1.0000 0.79206  0.12254  0.45286  Biso   1.000  O
  O137     1.0000 0.77491  0.15209  0.47698  Biso   1.000  O
  O138     1.0000 0.62428  0.05848  0.48284  Biso   1.000  O
  O139     1.0000 0.52457  0.98868  0.56502  Biso   1.000  O
  O140     1.0000 0.51274  0.02105  0.64476  Biso   1.000  O
  O141     1.0000 0.48955  0.96380  0.66312  Biso   1.000  O
  O142     1.0000 0.47588  0.07827  0.49654  Biso   1.000  O
  O143     1.0000 0.41782  0.16804  0.49217  Biso   1.000  O
  O144     1.0000 0.35916  0.12988  0.47652  Biso   1.000  O
  Zn16     1.0000 0.32407  0.15524  0.47234  Biso   1.000  Zn
  C529     1.0000 0.12520  0.76524  0.03670  Biso   1.000  C
  C530     1.0000 0.09496  0.72325  0.04016  Biso   1.000  C
  C531     1.0000 0.06254  0.71376  0.05469  Biso   1.000  C
  H433     1.0000 0.06273  0.73347  0.06367  Biso   1.000  H
  C532     1.0000 0.03114  0.67596  0.05560  Biso   1.000  C
  H434     1.0000 0.00983  0.66997  0.06517  Biso   1.000  H
  C533     1.0000 0.03083  0.64743  0.04284  Biso   1.000  C
  H435     1.0000 0.00913  0.62167  0.04357  Biso   1.000  H
  C534     1.0000 0.06269  0.65563  0.02841  Biso   1.000  C
  C535     1.0000 0.09496  0.69400  0.02713  Biso   1.000  C
  H436     1.0000 0.11623  0.69987  0.01757  Biso   1.000  H
  C536     1.0000 0.08925  0.62882  0.00174  Biso   1.000  C
  H437     1.0000 0.11393  0.63677  0.00967  Biso   1.000  H
  H438     1.0000 0.09403  0.64887  0.99047  Biso   1.000  H
  C537     1.0000 0.07366  0.58777  0.99072  Biso   1.000  C
  C538     1.0000 0.07179  0.55657  0.00320  Biso   1.000  C
  C539     1.0000 0.05328  0.51898  0.99371  Biso   1.000  C
  C540     1.0000 0.04085  0.51317  0.97173  Biso   1.000  C
  C541     1.0000 0.04423  0.54496  0.95935  Biso   1.000  C
  C542     1.0000 0.05929  0.58329  0.96947  Biso   1.000  C
  C543     1.0000 0.05921  0.61663  0.95625  Biso   1.000  C
  H439     1.0000 0.05293  0.63237  0.96607  Biso   1.000  H
  H440     1.0000 0.03963  0.60557  0.94447  Biso   1.000  H
  H441     1.0000 0.08503  0.63317  0.94977  Biso   1.000  H
  C544     1.0000 0.08961  0.56268  0.02636  Biso   1.000  C
  H442     1.0000 0.11593  0.58547  0.02627  Biso   1.000  H
  H443     1.0000 0.09093  0.53947  0.03067  Biso   1.000  H
  H444     1.0000 0.07333  0.56697  0.03687  Biso   1.000  H
  C545     1.0000 0.02215  0.47223  0.96153  Biso   1.000  C
  H445     1.0000 0.03033  0.45627  0.96977  Biso   1.000  H
  H446     1.0000 0.03053  0.47427  0.94617  Biso   1.000  H
  H447     1.0000 0.99363  0.45997  0.96217  Biso   1.000  H
  C546     1.0000 0.04611  0.48357  0.00743  Biso   1.000  C
  H448     1.0000 0.04483  0.48877  0.02327  Biso   1.000  H
  H449     1.0000 0.02103  0.46057  0.00317  Biso   1.000  H
  C547     1.0000 0.07470  0.44258  0.01390  Biso   1.000  C
  C548     1.0000 0.04232  0.41721  0.02719  Biso   1.000  C
  H450     1.0000 0.02173  0.42257  0.02947  Biso   1.000  H
  C549     1.0000 0.04077  0.38391  0.03699  Biso   1.000  C
  H451     1.0000 0.01913  0.36697  0.04587  Biso   1.000  H
  C550     1.0000 0.07159  0.37598  0.03352  Biso   1.000  C
  H452     1.0000 0.07053  0.35367  0.04007  Biso   1.000  H
  C551     1.0000 0.10397  0.40135  0.02023  Biso   1.000  C
  C552     1.0000 0.10552  0.43465  0.01043  Biso   1.000  C
  H453     1.0000 0.12723  0.45167  0.00157  Biso   1.000  H
  C553     1.0000 0.13679  0.39308  0.01619  Biso   1.000  C
  C554     1.0000 0.02958  0.53872  0.93543  Biso   1.000  C
  H454     1.0000 0.04343  0.56367  0.92727  Biso   1.000  H
  H455     1.0000 0.03523  0.51977  0.92807  Biso   1.000  H
  C555     1.0000 0.96954  0.51197  0.91518  Biso   1.000  C
  C556     1.0000 0.92817  0.49723  0.91623  Biso   1.000  C
  H456     1.0000 0.91643  0.49707  0.92987  Biso   1.000  H
  C557     1.0000 0.90488  0.48297  0.89716  Biso   1.000  C
  H457     1.0000 0.87743  0.47247  0.89797  Biso   1.000  H
  C558     1.0000 0.92346  0.48462  0.87656  Biso   1.000  C
  H458     1.0000 0.90843  0.47627  0.86347  Biso   1.000  H
  C559     1.0000 0.96370  0.49856  0.87580  Biso   1.000  C
  C560     1.0000 0.98654  0.51297  0.89541  Biso   1.000  C
  H459     1.0000 0.01393  0.52337  0.89467  Biso   1.000  H
  C561     1.0000 0.98463  0.50068  0.85426  Biso   1.000  C
  O145     1.0000 0.12254  0.79206  0.04714  Biso   1.000  O
  O146     1.0000 0.15209  0.77491  0.02302  Biso   1.000  O
  O147     1.0000 0.05848  0.62428  0.01716  Biso   1.000  O
  O148     1.0000 0.98868  0.52457  0.93498  Biso   1.000  O
  O149     1.0000 0.02105  0.51274  0.85524  Biso   1.000  O
  O150     1.0000 0.96380  0.48955  0.83688  Biso   1.000  O
  O151     1.0000 0.07827  0.47588  0.00346  Biso   1.000  O
  O152     1.0000 0.16804  0.41782  0.00783  Biso   1.000  O
  O153     1.0000 0.12988  0.35916  0.02348  Biso   1.000  O
  Zn17     1.0000 0.15524  0.32407  0.02766  Biso   1.000  Zn
  C562     1.0000 0.43190  0.45854  0.79664  Biso   1.000  C
  C563     1.0000 0.38991  0.42830  0.79318  Biso   1.000  C
  C564     1.0000 0.38042  0.39588  0.77865  Biso   1.000  C
  H460     1.0000 0.40013  0.39607  0.76967  Biso   1.000  H
  C565     1.0000 0.34262  0.36448  0.77774  Biso   1.000  C
  H461     1.0000 0.33663  0.34317  0.76817  Biso   1.000  H
  C566     1.0000 0.31409  0.36417  0.79050  Biso   1.000  C
  H462     1.0000 0.28833  0.34247  0.78977  Biso   1.000  H
  C567     1.0000 0.32229  0.39603  0.80493  Biso   1.000  C
  C568     1.0000 0.36066  0.42830  0.80621  Biso   1.000  C
  H463     1.0000 0.36653  0.44957  0.81577  Biso   1.000  H
  C569     1.0000 0.29548  0.42259  0.83160  Biso   1.000  C
  H464     1.0000 0.30343  0.44727  0.82367  Biso   1.000  H
  H465     1.0000 0.31553  0.42737  0.84287  Biso   1.000  H
  C570     1.0000 0.25443  0.40700  0.84262  Biso   1.000  C
  C571     1.0000 0.22323  0.40513  0.83014  Biso   1.000  C
  C572     1.0000 0.18564  0.38662  0.83963  Biso   1.000  C
  C573     1.0000 0.17983  0.37419  0.86161  Biso   1.000  C
  C574     1.0000 0.21162  0.37757  0.87399  Biso   1.000  C
  C575     1.0000 0.24995  0.39263  0.86387  Biso   1.000  C
  C576     1.0000 0.28329  0.39255  0.87709  Biso   1.000  C
  H466     1.0000 0.29903  0.38627  0.86727  Biso   1.000  H
  H467     1.0000 0.27223  0.37297  0.88887  Biso   1.000  H
  H468     1.0000 0.29983  0.41837  0.88357  Biso   1.000  H
  C577     1.0000 0.22934  0.42295  0.80698  Biso   1.000  C
  H469     1.0000 0.25213  0.44927  0.80707  Biso   1.000  H
  H470     1.0000 0.20613  0.42427  0.80267  Biso   1.000  H
  H471     1.0000 0.23363  0.40667  0.79647  Biso   1.000  H
  C578     1.0000 0.13889  0.35549  0.87181  Biso   1.000  C
  H472     1.0000 0.12293  0.36367  0.86357  Biso   1.000  H
  H473     1.0000 0.14093  0.36387  0.88717  Biso   1.000  H
  H474     1.0000 0.12663  0.32697  0.87117  Biso   1.000  H
  C579     1.0000 0.15023  0.37945  0.82591  Biso   1.000  C
  H475     1.0000 0.15543  0.37817  0.81007  Biso   1.000  H
  H476     1.0000 0.12723  0.35437  0.83017  Biso   1.000  H
  C580     1.0000 0.10924  0.40804  0.81944  Biso   1.000  C
  C581     1.0000 0.08387  0.37566  0.80615  Biso   1.000  C
  H477     1.0000 0.08923  0.35507  0.80387  Biso   1.000  H
  C582     1.0000 0.05057  0.37411  0.79635  Biso   1.000  C
  H478     1.0000 0.03363  0.35247  0.78747  Biso   1.000  H
  C583     1.0000 0.04264  0.40493  0.79982  Biso   1.000  C
  H479     1.0000 0.02033  0.40387  0.79327  Biso   1.000  H
  C584     1.0000 0.06801  0.43731  0.81311  Biso   1.000  C
  C585     1.0000 0.10131  0.43886  0.82291  Biso   1.000  C
  H480     1.0000 0.11833  0.46057  0.83177  Biso   1.000  H
  C586     1.0000 0.05974  0.47013  0.81715  Biso   1.000  C
  C587     1.0000 0.20538  0.36292  0.89791  Biso   1.000  C
  H481     1.0000 0.23033  0.37677  0.90607  Biso   1.000  H
  H482     1.0000 0.18643  0.36857  0.90527  Biso   1.000  H
  C588     1.0000 0.17863  0.30288  0.91816  Biso   1.000  C
  C589     1.0000 0.16389  0.26151  0.91711  Biso   1.000  C
  H483     1.0000 0.16373  0.24977  0.90347  Biso   1.000  H
  C590     1.0000 0.14963  0.23822  0.93618  Biso   1.000  C
  H484     1.0000 0.13913  0.21077  0.93537  Biso   1.000  H
  C591     1.0000 0.15128  0.25680  0.95678  Biso   1.000  C
  H485     1.0000 0.14293  0.24177  0.96987  Biso   1.000  H
  C592     1.0000 0.16522  0.29704  0.95754  Biso   1.000  C
  C593     1.0000 0.17963  0.31988  0.93793  Biso   1.000  C
  H486     1.0000 0.19003  0.34727  0.93867  Biso   1.000  H
  C594     1.0000 0.16734  0.31797  0.97908  Biso   1.000  C
  O154     1.0000 0.45872  0.45588  0.78620  Biso   1.000  O
  O155     1.0000 0.44157  0.48543  0.81032  Biso   1.000  O
  O156     1.0000 0.29094  0.39182  0.81618  Biso   1.000  O
  O157     1.0000 0.19123  0.32202  0.89836  Biso   1.000  O
  O158     1.0000 0.17940  0.35439  0.97810  Biso   1.000  O
  O159     1.0000 0.15621  0.29714  0.99646  Biso   1.000  O
  O160     1.0000 0.14254  0.41161  0.82988  Biso   1.000  O
  O161     1.0000 0.08448  0.50138  0.82551  Biso   1.000  O
  O162     1.0000 0.02582  0.46322  0.80986  Biso   1.000  O
  Zn18     1.0000 0.99073  0.48857  0.80567  Biso   1.000  Zn
  C595     1.0000 0.69330  0.79187  0.62997  Biso   1.000  C
  C596     1.0000 0.70505  0.76163  0.62651  Biso   1.000  C
  C597     1.0000 0.68212  0.72921  0.61198  Biso   1.000  C
  H487     1.0000 0.66260  0.72940  0.60300  Biso   1.000  H
  C598     1.0000 0.68852  0.69781  0.61107  Biso   1.000  C
  H488     1.0000 0.67320  0.67650  0.60150  Biso   1.000  H
  C599     1.0000 0.71674  0.69750  0.62383  Biso   1.000  C
  H489     1.0000 0.72080  0.67580  0.62310  Biso   1.000  H
  C600     1.0000 0.74040  0.72936  0.63826  Biso   1.000  C
  C601     1.0000 0.73430  0.76163  0.63954  Biso   1.000  C
  H490     1.0000 0.74970  0.78290  0.64910  Biso   1.000  H
  C602     1.0000 0.79377  0.75592  0.66493  Biso   1.000  C
  H491     1.0000 0.81050  0.78060  0.65700  Biso   1.000  H
  H492     1.0000 0.77850  0.76070  0.67620  Biso   1.000  H
  C603     1.0000 0.81923  0.74033  0.67595  Biso   1.000  C
  C604     1.0000 0.84856  0.73846  0.66347  Biso   1.000  C
  C605     1.0000 0.86764  0.71995  0.67296  Biso   1.000  C
  C606     1.0000 0.86102  0.70752  0.69494  Biso   1.000  C
  C607     1.0000 0.83261  0.71090  0.70732  Biso   1.000  C
  C608     1.0000 0.80934  0.72596  0.69720  Biso   1.000  C
  C609     1.0000 0.77592  0.72588  0.71042  Biso   1.000  C
  H493     1.0000 0.75390  0.71960  0.70060  Biso   1.000  H
  H494     1.0000 0.76740  0.70630  0.72220  Biso   1.000  H
  H495     1.0000 0.78520  0.75170  0.71690  Biso   1.000  H
  C610     1.0000 0.86027  0.75628  0.64031  Biso   1.000  C
  H496     1.0000 0.86380  0.78260  0.64040  Biso   1.000  H
  H497     1.0000 0.88480  0.75760  0.63600  Biso   1.000  H
  H498     1.0000 0.83970  0.74000  0.62980  Biso   1.000  H
  C611     1.0000 0.88326  0.68882  0.70514  Biso   1.000  C
  H499     1.0000 0.90740  0.69700  0.69690  Biso   1.000  H
  H500     1.0000 0.88960  0.69720  0.72050  Biso   1.000  H
  H501     1.0000 0.86700  0.66030  0.70450  Biso   1.000  H
  C612     1.0000 0.89588  0.71278  0.65924  Biso   1.000  C
  H502     1.0000 0.88940  0.71150  0.64340  Biso   1.000  H
  H503     1.0000 0.89380  0.68770  0.66350  Biso   1.000  H
  C613     1.0000 0.96546  0.74137  0.65277  Biso   1.000  C
  C614     1.0000 0.95845  0.70899  0.63948  Biso   1.000  C
  H504     1.0000 0.93250  0.68840  0.63720  Biso   1.000  H
  C615     1.0000 0.99020  0.70744  0.62968  Biso   1.000  C
  H505     1.0000 0.98550  0.68580  0.62080  Biso   1.000  H
  C616     1.0000 0.02895  0.73826  0.63315  Biso   1.000  C
  H506     1.0000 0.05020  0.73720  0.62660  Biso   1.000  H
  C617     1.0000 0.03596  0.77064  0.64644  Biso   1.000  C
  C618     1.0000 0.00421  0.77219  0.65624  Biso   1.000  C
  H507     1.0000 0.00890  0.79390  0.66510  Biso   1.000  H
  C619     1.0000 0.07705  0.80346  0.65048  Biso   1.000  C
  C620     1.0000 0.82420  0.69625  0.73124  Biso   1.000  C
  H508     1.0000 0.81310  0.71010  0.73940  Biso   1.000  H
  H509     1.0000 0.84880  0.70190  0.73860  Biso   1.000  H
  C621     1.0000 0.79091  0.63621  0.75149  Biso   1.000  C
  C622     1.0000 0.76428  0.59484  0.75044  Biso   1.000  C
  H510     1.0000 0.75270  0.58310  0.73680  Biso   1.000  H
  C623     1.0000 0.75525  0.57155  0.76951  Biso   1.000  C
  H511     1.0000 0.73830  0.54410  0.76870  Biso   1.000  H
  C624     1.0000 0.77218  0.59013  0.79011  Biso   1.000  C
  H512     1.0000 0.76550  0.57510  0.80320  Biso   1.000  H
  C625     1.0000 0.79848  0.63037  0.79087  Biso   1.000  C
  C626     1.0000 0.80691  0.65321  0.77126  Biso   1.000  C
  H513     1.0000 0.82390  0.68060  0.77200  Biso   1.000  H
  C627     1.0000 0.81729  0.65130  0.81241  Biso   1.000  C
  O163     1.0000 0.66382  0.78921  0.61953  Biso   1.000  O
  O164     1.0000 0.71052  0.81876  0.64365  Biso   1.000  O
  O165     1.0000 0.76754  0.72515  0.64951  Biso   1.000  O
  O166     1.0000 0.79745  0.65535  0.73169  Biso   1.000  O
  O167     1.0000 0.84165  0.68772  0.81143  Biso   1.000  O
  O168     1.0000 0.80759  0.63047  0.82979  Biso   1.000  O
  O169     1.0000 0.93573  0.74494  0.66321  Biso   1.000  O
  O170     1.0000 0.08356  0.83471  0.65884  Biso   1.000  O
  O171     1.0000 0.10406  0.79655  0.64319  Biso   1.000  O
  Zn19     1.0000 0.16451  0.82191  0.63901  Biso   1.000  Zn
  Zn20     1.0000 0.83549  0.65740  0.86099  Biso   1.000  Zn
  C628     1.0000 0.30670  0.09857  0.87003  Biso   1.000  C
  C629     1.0000 0.29495  0.05658  0.87349  Biso   1.000  C
  C630     1.0000 0.31788  0.04709  0.88802  Biso   1.000  C
  H514     1.0000 0.33740  0.06680  0.89700  Biso   1.000  H
  C631     1.0000 0.31148  0.00929  0.88893  Biso   1.000  C
  H515     1.0000 0.32680  0.00330  0.89850  Biso   1.000  H
  C632     1.0000 0.28326  0.98076  0.87617  Biso   1.000  C
  H516     1.0000 0.27920  0.95500  0.87690  Biso   1.000  H
  C633     1.0000 0.25960  0.98896  0.86174  Biso   1.000  C
  C634     1.0000 0.26570  0.02733  0.86046  Biso   1.000  C
  H517     1.0000 0.25030  0.03320  0.85090  Biso   1.000  H
  C635     1.0000 0.20623  0.96215  0.83507  Biso   1.000  C
  H518     1.0000 0.18950  0.97010  0.84300  Biso   1.000  H
  H519     1.0000 0.22150  0.98220  0.82380  Biso   1.000  H
  C636     1.0000 0.18077  0.92110  0.82405  Biso   1.000  C
  C637     1.0000 0.15144  0.88990  0.83653  Biso   1.000  C
  C638     1.0000 0.13236  0.85231  0.82704  Biso   1.000  C
  C639     1.0000 0.13898  0.84650  0.80506  Biso   1.000  C
  C640     1.0000 0.16739  0.87829  0.79268  Biso   1.000  C
  C641     1.0000 0.19066  0.91662  0.80280  Biso   1.000  C
  C642     1.0000 0.22408  0.94996  0.78958  Biso   1.000  C
  H520     1.0000 0.24610  0.96570  0.79940  Biso   1.000  H
  H521     1.0000 0.23260  0.93890  0.77780  Biso   1.000  H
  H522     1.0000 0.21480  0.96650  0.78310  Biso   1.000  H
  C643     1.0000 0.13973  0.89601  0.85969  Biso   1.000  C
  H523     1.0000 0.13620  0.91880  0.85960  Biso   1.000  H
  H524     1.0000 0.11520  0.87280  0.86400  Biso   1.000  H
  H525     1.0000 0.16030  0.90030  0.87020  Biso   1.000  H
  C644     1.0000 0.11674  0.80556  0.79486  Biso   1.000  C
  H526     1.0000 0.09260  0.78960  0.80310  Biso   1.000  H
  H527     1.0000 0.11040  0.80760  0.77950  Biso   1.000  H
  H528     1.0000 0.13300  0.79330  0.79550  Biso   1.000  H
  C645     1.0000 0.10412  0.81690  0.84076  Biso   1.000  C
  H529     1.0000 0.11060  0.82210  0.85660  Biso   1.000  H
  H530     1.0000 0.10620  0.79390  0.83650  Biso   1.000  H
  C646     1.0000 0.03454  0.77591  0.84723  Biso   1.000  C
  C647     1.0000 0.04155  0.75054  0.86052  Biso   1.000  C
  H531     1.0000 0.06750  0.75590  0.86280  Biso   1.000  H
  C648     1.0000 0.00980  0.71724  0.87032  Biso   1.000  C
  H532     1.0000 0.01450  0.70030  0.87920  Biso   1.000  H
  C649     1.0000 0.97105  0.70931  0.86685  Biso   1.000  C
  H533     1.0000 0.94980  0.68700  0.87340  Biso   1.000  H
  C650     1.0000 0.96404  0.73468  0.85356  Biso   1.000  C
  C651     1.0000 0.99579  0.76798  0.84376  Biso   1.000  C
  H534     1.0000 0.99110  0.78500  0.83490  Biso   1.000  H
  C652     1.0000 0.92295  0.72641  0.84952  Biso   1.000  C
  C653     1.0000 0.17580  0.87205  0.76876  Biso   1.000  C
  H535     1.0000 0.18690  0.89700  0.76060  Biso   1.000  H
  H536     1.0000 0.15120  0.85310  0.76140  Biso   1.000  H
  C654     1.0000 0.20909  0.84530  0.74851  Biso   1.000  C
  C655     1.0000 0.23572  0.83056  0.74956  Biso   1.000  C
  H537     1.0000 0.24730  0.83040  0.76320  Biso   1.000  H
  C656     1.0000 0.24475  0.81630  0.73049  Biso   1.000  C
  H538     1.0000 0.26170  0.80580  0.73130  Biso   1.000  H
  C657     1.0000 0.22782  0.81795  0.70989  Biso   1.000  C
  H539     1.0000 0.23450  0.80960  0.69680  Biso   1.000  H
  C658     1.0000 0.20152  0.83189  0.70913  Biso   1.000  C
  C659     1.0000 0.19309  0.84630  0.72874  Biso   1.000  C
  H540     1.0000 0.17610  0.85670  0.72800  Biso   1.000  H
  C660     1.0000 0.18271  0.83401  0.68759  Biso   1.000  C
  O172     1.0000 0.33618  0.12539  0.88047  Biso   1.000  O
  O173     1.0000 0.28948  0.10824  0.85635  Biso   1.000  O
  O174     1.0000 0.23246  0.95761  0.85049  Biso   1.000  O
  O175     1.0000 0.20255  0.85790  0.76831  Biso   1.000  O
  O176     1.0000 0.15835  0.84607  0.68857  Biso   1.000  O
  O177     1.0000 0.19241  0.82288  0.67021  Biso   1.000  O
  O178     1.0000 0.06427  0.80921  0.83679  Biso   1.000  O
  O179     1.0000 0.91644  0.75115  0.84116  Biso   1.000  O
  O180     1.0000 0.89594  0.69249  0.85681  Biso   1.000  O
  Zn21     1.0000 0.65740  0.83549  0.63901  Biso   1.000  Zn
  C661     1.0000 0.09857  0.30670  0.62997  Biso   1.000  C
  C662     1.0000 0.05658  0.29495  0.62651  Biso   1.000  C
  C663     1.0000 0.04709  0.31788  0.61198  Biso   1.000  C
  H541     1.0000 0.06680  0.33740  0.60300  Biso   1.000  H
  C664     1.0000 0.00929  0.31148  0.61107  Biso   1.000  C
  H542     1.0000 0.00330  0.32680  0.60150  Biso   1.000  H
  C665     1.0000 0.98076  0.28326  0.62383  Biso   1.000  C
  H543     1.0000 0.95500  0.27920  0.62310  Biso   1.000  H
  C666     1.0000 0.98896  0.25960  0.63826  Biso   1.000  C
  C667     1.0000 0.02733  0.26570  0.63954  Biso   1.000  C
  H544     1.0000 0.03320  0.25030  0.64910  Biso   1.000  H
  C668     1.0000 0.96215  0.20623  0.66493  Biso   1.000  C
  H545     1.0000 0.97010  0.18950  0.65700  Biso   1.000  H
  H546     1.0000 0.98220  0.22150  0.67620  Biso   1.000  H
  C669     1.0000 0.92110  0.18077  0.67595  Biso   1.000  C
  C670     1.0000 0.88990  0.15144  0.66347  Biso   1.000  C
  C671     1.0000 0.85231  0.13236  0.67296  Biso   1.000  C
  C672     1.0000 0.84650  0.13898  0.69494  Biso   1.000  C
  C673     1.0000 0.87829  0.16739  0.70732  Biso   1.000  C
  C674     1.0000 0.91662  0.19066  0.69720  Biso   1.000  C
  C675     1.0000 0.94996  0.22408  0.71042  Biso   1.000  C
  H547     1.0000 0.96570  0.24610  0.70060  Biso   1.000  H
  H548     1.0000 0.93890  0.23260  0.72220  Biso   1.000  H
  H549     1.0000 0.96650  0.21480  0.71690  Biso   1.000  H
  C676     1.0000 0.89601  0.13973  0.64031  Biso   1.000  C
  H550     1.0000 0.91880  0.13620  0.64040  Biso   1.000  H
  H551     1.0000 0.87280  0.11520  0.63600  Biso   1.000  H
  H552     1.0000 0.90030  0.16030  0.62980  Biso   1.000  H
  C677     1.0000 0.80556  0.11674  0.70514  Biso   1.000  C
  H553     1.0000 0.78960  0.09260  0.69690  Biso   1.000  H
  H554     1.0000 0.80760  0.11040  0.72050  Biso   1.000  H
  H555     1.0000 0.79330  0.13300  0.70450  Biso   1.000  H
  C678     1.0000 0.81690  0.10412  0.65924  Biso   1.000  C
  H556     1.0000 0.82210  0.11060  0.64340  Biso   1.000  H
  H557     1.0000 0.79390  0.10620  0.66350  Biso   1.000  H
  C679     1.0000 0.77591  0.03454  0.65277  Biso   1.000  C
  C680     1.0000 0.75054  0.04155  0.63948  Biso   1.000  C
  H558     1.0000 0.75590  0.06750  0.63720  Biso   1.000  H
  C681     1.0000 0.71724  0.00980  0.62968  Biso   1.000  C
  H559     1.0000 0.70030  0.01450  0.62080  Biso   1.000  H
  C682     1.0000 0.70931  0.97105  0.63315  Biso   1.000  C
  H560     1.0000 0.68700  0.94980  0.62660  Biso   1.000  H
  C683     1.0000 0.73468  0.96404  0.64644  Biso   1.000  C
  C684     1.0000 0.76798  0.99579  0.65624  Biso   1.000  C
  H561     1.0000 0.78500  0.99110  0.66510  Biso   1.000  H
  C685     1.0000 0.72641  0.92295  0.65048  Biso   1.000  C
  C686     1.0000 0.87205  0.17580  0.73124  Biso   1.000  C
  H562     1.0000 0.89700  0.18690  0.73940  Biso   1.000  H
  H563     1.0000 0.85310  0.15120  0.73860  Biso   1.000  H
  C687     1.0000 0.84530  0.20909  0.75149  Biso   1.000  C
  C688     1.0000 0.83056  0.23572  0.75044  Biso   1.000  C
  H564     1.0000 0.83040  0.24730  0.73680  Biso   1.000  H
  C689     1.0000 0.81630  0.24475  0.76951  Biso   1.000  C
  H565     1.0000 0.80580  0.26170  0.76870  Biso   1.000  H
  C690     1.0000 0.81795  0.22782  0.79011  Biso   1.000  C
  H566     1.0000 0.80960  0.23450  0.80320  Biso   1.000  H
  C691     1.0000 0.83189  0.20152  0.79087  Biso   1.000  C
  C692     1.0000 0.84630  0.19309  0.77126  Biso   1.000  C
  H567     1.0000 0.85670  0.17610  0.77200  Biso   1.000  H
  C693     1.0000 0.83401  0.18271  0.81241  Biso   1.000  C
  O181     1.0000 0.12539  0.33618  0.61953  Biso   1.000  O
  O182     1.0000 0.10824  0.28948  0.64365  Biso   1.000  O
  O183     1.0000 0.95761  0.23246  0.64951  Biso   1.000  O
  O184     1.0000 0.85790  0.20255  0.73169  Biso   1.000  O
  O185     1.0000 0.84607  0.15835  0.81143  Biso   1.000  O
  O186     1.0000 0.82288  0.19241  0.82979  Biso   1.000  O
  O187     1.0000 0.80921  0.06427  0.66321  Biso   1.000  O
  O188     1.0000 0.75115  0.91644  0.65884  Biso   1.000  O
  O189     1.0000 0.69249  0.89594  0.64319  Biso   1.000  O
  C694     1.0000 0.79187  0.69330  0.87003  Biso   1.000  C
  C695     1.0000 0.76163  0.70505  0.87349  Biso   1.000  C
  C696     1.0000 0.72921  0.68212  0.88802  Biso   1.000  C
  H568     1.0000 0.72940  0.66260  0.89700  Biso   1.000  H
  C697     1.0000 0.69781  0.68852  0.88893  Biso   1.000  C
  H569     1.0000 0.67650  0.67320  0.89850  Biso   1.000  H
  C698     1.0000 0.69750  0.71674  0.87617  Biso   1.000  C
  H570     1.0000 0.67580  0.72080  0.87690  Biso   1.000  H
  C699     1.0000 0.72936  0.74040  0.86174  Biso   1.000  C
  C700     1.0000 0.76163  0.73430  0.86046  Biso   1.000  C
  H571     1.0000 0.78290  0.74970  0.85090  Biso   1.000  H
  C701     1.0000 0.75592  0.79377  0.83507  Biso   1.000  C
  H572     1.0000 0.78060  0.81050  0.84300  Biso   1.000  H
  H573     1.0000 0.76070  0.77850  0.82380  Biso   1.000  H
  C702     1.0000 0.74033  0.81923  0.82405  Biso   1.000  C
  C703     1.0000 0.73846  0.84856  0.83653  Biso   1.000  C
  C704     1.0000 0.71995  0.86764  0.82704  Biso   1.000  C
  C705     1.0000 0.70752  0.86102  0.80506  Biso   1.000  C
  C706     1.0000 0.71090  0.83261  0.79268  Biso   1.000  C
  C707     1.0000 0.72596  0.80934  0.80280  Biso   1.000  C
  C708     1.0000 0.72588  0.77592  0.78958  Biso   1.000  C
  H574     1.0000 0.71960  0.75390  0.79940  Biso   1.000  H
  H575     1.0000 0.70630  0.76740  0.77780  Biso   1.000  H
  H576     1.0000 0.75170  0.78520  0.78310  Biso   1.000  H
  C709     1.0000 0.75628  0.86027  0.85969  Biso   1.000  C
  H577     1.0000 0.78260  0.86380  0.85960  Biso   1.000  H
  H578     1.0000 0.75760  0.88480  0.86400  Biso   1.000  H
  H579     1.0000 0.74000  0.83970  0.87020  Biso   1.000  H
  C710     1.0000 0.68882  0.88326  0.79486  Biso   1.000  C
  H580     1.0000 0.69700  0.90740  0.80310  Biso   1.000  H
  H581     1.0000 0.69720  0.88960  0.77950  Biso   1.000  H
  H582     1.0000 0.66030  0.86700  0.79550  Biso   1.000  H
  C711     1.0000 0.71278  0.89588  0.84076  Biso   1.000  C
  H583     1.0000 0.71150  0.88940  0.85660  Biso   1.000  H
  H584     1.0000 0.68770  0.89380  0.83650  Biso   1.000  H
  C712     1.0000 0.74137  0.96546  0.84723  Biso   1.000  C
  C713     1.0000 0.70899  0.95845  0.86052  Biso   1.000  C
  H585     1.0000 0.68840  0.93250  0.86280  Biso   1.000  H
  C714     1.0000 0.70744  0.99020  0.87032  Biso   1.000  C
  H586     1.0000 0.68580  0.98550  0.87920  Biso   1.000  H
  C715     1.0000 0.73826  0.02895  0.86685  Biso   1.000  C
  H587     1.0000 0.73720  0.05020  0.87340  Biso   1.000  H
  C716     1.0000 0.77064  0.03596  0.85356  Biso   1.000  C
  C717     1.0000 0.77219  0.00421  0.84376  Biso   1.000  C
  H588     1.0000 0.79390  0.00890  0.83490  Biso   1.000  H
  C718     1.0000 0.80346  0.07705  0.84952  Biso   1.000  C
  C719     1.0000 0.69625  0.82420  0.76876  Biso   1.000  C
  H589     1.0000 0.71010  0.81310  0.76060  Biso   1.000  H
  H590     1.0000 0.70190  0.84880  0.76140  Biso   1.000  H
  C720     1.0000 0.63621  0.79091  0.74851  Biso   1.000  C
  C721     1.0000 0.59484  0.76428  0.74956  Biso   1.000  C
  H591     1.0000 0.58310  0.75270  0.76320  Biso   1.000  H
  C722     1.0000 0.57155  0.75525  0.73049  Biso   1.000  C
  H592     1.0000 0.54410  0.73830  0.73130  Biso   1.000  H
  C723     1.0000 0.59013  0.77218  0.70989  Biso   1.000  C
  H593     1.0000 0.57510  0.76550  0.69680  Biso   1.000  H
  C724     1.0000 0.63037  0.79848  0.70913  Biso   1.000  C
  C725     1.0000 0.65321  0.80691  0.72874  Biso   1.000  C
  H594     1.0000 0.68060  0.82390  0.72800  Biso   1.000  H
  C726     1.0000 0.65130  0.81729  0.68759  Biso   1.000  C
  O190     1.0000 0.78921  0.66382  0.88047  Biso   1.000  O
  O191     1.0000 0.81876  0.71052  0.85635  Biso   1.000  O
  O192     1.0000 0.72515  0.76754  0.85049  Biso   1.000  O
  O193     1.0000 0.65535  0.79745  0.76831  Biso   1.000  O
  O194     1.0000 0.68772  0.84165  0.68857  Biso   1.000  O
  O195     1.0000 0.63047  0.80759  0.67021  Biso   1.000  O
  O196     1.0000 0.74494  0.93573  0.83679  Biso   1.000  O
  O197     1.0000 0.83471  0.08356  0.84116  Biso   1.000  O
  O198     1.0000 0.79655  0.10406  0.85681  Biso   1.000  O
  Zn22     1.0000 0.82191  0.16451  0.86099  Biso   1.000  Zn
  C727     1.0000 0.35997  0.12520  0.96330  Biso   1.000  C
  C728     1.0000 0.37172  0.09496  0.95984  Biso   1.000  C
  C729     1.0000 0.34879  0.06254  0.94531  Biso   1.000  C
  H595     1.0000 0.32927  0.06273  0.93633  Biso   1.000  H
  C730     1.0000 0.35519  0.03114  0.94440  Biso   1.000  C
  H596     1.0000 0.33987  0.00983  0.93483  Biso   1.000  H
  C731     1.0000 0.38341  0.03083  0.95716  Biso   1.000  C
  H597     1.0000 0.38747  0.00913  0.95643  Biso   1.000  H
  C732     1.0000 0.40707  0.06269  0.97159  Biso   1.000  C
  C733     1.0000 0.40097  0.09496  0.97287  Biso   1.000  C
  H598     1.0000 0.41637  0.11623  0.98243  Biso   1.000  H
  C734     1.0000 0.46044  0.08925  0.99826  Biso   1.000  C
  H599     1.0000 0.47717  0.11393  0.99033  Biso   1.000  H
  H600     1.0000 0.44517  0.09403  0.00953  Biso   1.000  H
  C735     1.0000 0.48590  0.07366  0.00928  Biso   1.000  C
  C736     1.0000 0.51523  0.07179  0.99680  Biso   1.000  C
  C737     1.0000 0.53431  0.05328  0.00629  Biso   1.000  C
  C738     1.0000 0.52769  0.04085  0.02827  Biso   1.000  C
  C739     1.0000 0.49928  0.04423  0.04065  Biso   1.000  C
  C740     1.0000 0.47601  0.05929  0.03053  Biso   1.000  C
  C741     1.0000 0.44259  0.05921  0.04375  Biso   1.000  C
  H601     1.0000 0.42057  0.05293  0.03393  Biso   1.000  H
  H602     1.0000 0.43407  0.03963  0.05553  Biso   1.000  H
  H603     1.0000 0.45187  0.08503  0.05023  Biso   1.000  H
  C742     1.0000 0.52694  0.08961  0.97364  Biso   1.000  C
  H604     1.0000 0.53047  0.11593  0.97373  Biso   1.000  H
  H605     1.0000 0.55147  0.09093  0.96933  Biso   1.000  H
  H606     1.0000 0.50637  0.07333  0.96313  Biso   1.000  H
  C743     1.0000 0.54993  0.02215  0.03847  Biso   1.000  C
  H607     1.0000 0.57407  0.03033  0.03023  Biso   1.000  H
  H608     1.0000 0.55627  0.03053  0.05383  Biso   1.000  H
  H609     1.0000 0.53367  0.99363  0.03783  Biso   1.000  H
  C744     1.0000 0.56255  0.04611  0.99257  Biso   1.000  C
  H610     1.0000 0.55607  0.04483  0.97673  Biso   1.000  H
  H611     1.0000 0.56047  0.02103  0.99683  Biso   1.000  H
  C745     1.0000 0.63213  0.07470  0.98610  Biso   1.000  C
  C746     1.0000 0.62512  0.04232  0.97281  Biso   1.000  C
  H612     1.0000 0.59917  0.02173  0.97053  Biso   1.000  H
  C747     1.0000 0.65687  0.04077  0.96301  Biso   1.000  C
  H613     1.0000 0.65217  0.01913  0.95413  Biso   1.000  H
  C748     1.0000 0.69562  0.07159  0.96648  Biso   1.000  C
  H614     1.0000 0.71687  0.07053  0.95993  Biso   1.000  H
  C749     1.0000 0.70263  0.10397  0.97977  Biso   1.000  C
  C750     1.0000 0.67088  0.10552  0.98957  Biso   1.000  C
  H615     1.0000 0.67557  0.12723  0.99843  Biso   1.000  H
  C751     1.0000 0.74372  0.13679  0.98381  Biso   1.000  C
  C752     1.0000 0.49087  0.02958  0.06457  Biso   1.000  C
  H616     1.0000 0.47977  0.04343  0.07273  Biso   1.000  H
  H617     1.0000 0.51547  0.03523  0.07193  Biso   1.000  H
  C753     1.0000 0.45758  0.96954  0.08482  Biso   1.000  C
  C754     1.0000 0.43095  0.92817  0.08377  Biso   1.000  C
  H618     1.0000 0.41937  0.91643  0.07013  Biso   1.000  H
  C755     1.0000 0.42192  0.90488  0.10284  Biso   1.000  C
  H619     1.0000 0.40497  0.87743  0.10203  Biso   1.000  H
  C756     1.0000 0.43885  0.92346  0.12344  Biso   1.000  C
  H620     1.0000 0.43217  0.90843  0.13653  Biso   1.000  H
  C757     1.0000 0.46515  0.96370  0.12420  Biso   1.000  C
  C758     1.0000 0.47358  0.98654  0.10459  Biso   1.000  C
  H621     1.0000 0.49057  0.01393  0.10533  Biso   1.000  H
  C759     1.0000 0.48396  0.98463  0.14574  Biso   1.000  C
  O199     1.0000 0.33049  0.12254  0.95286  Biso   1.000  O
  O200     1.0000 0.37719  0.15209  0.97698  Biso   1.000  O
  O201     1.0000 0.43421  0.05848  0.98284  Biso   1.000  O
  O202     1.0000 0.46412  0.98868  0.06502  Biso   1.000  O
  O203     1.0000 0.50832  0.02105  0.14476  Biso   1.000  O
  O204     1.0000 0.47426  0.96380  0.16312  Biso   1.000  O
  O205     1.0000 0.60240  0.07827  0.99654  Biso   1.000  O
  O206     1.0000 0.75023  0.16804  0.99217  Biso   1.000  O
  O207     1.0000 0.77073  0.12988  0.97652  Biso   1.000  O
  Zn23     1.0000 0.83117  0.15524  0.97234  Biso   1.000  Zn
  Zn24     1.0000 0.50216  0.99073  0.19433  Biso   1.000  Zn
  C760     1.0000 0.97337  0.43190  0.20336  Biso   1.000  C
  C761     1.0000 0.96162  0.38991  0.20682  Biso   1.000  C
  C762     1.0000 0.98455  0.38042  0.22135  Biso   1.000  C
  H622     1.0000 0.00407  0.40013  0.23033  Biso   1.000  H
  C763     1.0000 0.97815  0.34262  0.22226  Biso   1.000  C
  H623     1.0000 0.99347  0.33663  0.23183  Biso   1.000  H
  C764     1.0000 0.94993  0.31409  0.20950  Biso   1.000  C
  H624     1.0000 0.94587  0.28833  0.21023  Biso   1.000  H
  C765     1.0000 0.92627  0.32229  0.19507  Biso   1.000  C
  C766     1.0000 0.93237  0.36066  0.19379  Biso   1.000  C
  H625     1.0000 0.91697  0.36653  0.18423  Biso   1.000  H
  C767     1.0000 0.87290  0.29548  0.16840  Biso   1.000  C
  H626     1.0000 0.85617  0.30343  0.17633  Biso   1.000  H
  H627     1.0000 0.88817  0.31553  0.15713  Biso   1.000  H
  C768     1.0000 0.84744  0.25443  0.15738  Biso   1.000  C
  C769     1.0000 0.81811  0.22323  0.16986  Biso   1.000  C
  C770     1.0000 0.79903  0.18564  0.16037  Biso   1.000  C
  C771     1.0000 0.80565  0.17983  0.13839  Biso   1.000  C
  C772     1.0000 0.83406  0.21162  0.12601  Biso   1.000  C
  C773     1.0000 0.85733  0.24995  0.13613  Biso   1.000  C
  C774     1.0000 0.89075  0.28329  0.12291  Biso   1.000  C
  H628     1.0000 0.91277  0.29903  0.13273  Biso   1.000  H
  H629     1.0000 0.89927  0.27223  0.11113  Biso   1.000  H
  H630     1.0000 0.88147  0.29983  0.11643  Biso   1.000  H
  C775     1.0000 0.80640  0.22934  0.19302  Biso   1.000  C
  H631     1.0000 0.80287  0.25213  0.19293  Biso   1.000  H
  H632     1.0000 0.78187  0.20613  0.19733  Biso   1.000  H
  H633     1.0000 0.82697  0.23363  0.20353  Biso   1.000  H
  C776     1.0000 0.78341  0.13889  0.12819  Biso   1.000  C
  H634     1.0000 0.75927  0.12293  0.13643  Biso   1.000  H
  H635     1.0000 0.77707  0.14093  0.11283  Biso   1.000  H
  H636     1.0000 0.79967  0.12663  0.12883  Biso   1.000  H
  C777     1.0000 0.77079  0.15023  0.17409  Biso   1.000  C
  H637     1.0000 0.77727  0.15543  0.18993  Biso   1.000  H
  H638     1.0000 0.77287  0.12723  0.16983  Biso   1.000  H
  C778     1.0000 0.70121  0.10924  0.18056  Biso   1.000  C
  C779     1.0000 0.70822  0.08387  0.19385  Biso   1.000  C
  H639     1.0000 0.73417  0.08923  0.19613  Biso   1.000  H
  C780     1.0000 0.67647  0.05057  0.20365  Biso   1.000  C
  H640     1.0000 0.68117  0.03363  0.21253  Biso   1.000  H
  C781     1.0000 0.63772  0.04264  0.20018  Biso   1.000  C
  H641     1.0000 0.61647  0.02033  0.20673  Biso   1.000  H
  C782     1.0000 0.63071  0.06801  0.18689  Biso   1.000  C
  C783     1.0000 0.66246  0.10131  0.17709  Biso   1.000  C
  H642     1.0000 0.65777  0.11833  0.16823  Biso   1.000  H
  C784     1.0000 0.58962  0.05974  0.18285  Biso   1.000  C
  C785     1.0000 0.84247  0.20538  0.10209  Biso   1.000  C
  H643     1.0000 0.85357  0.23033  0.09393  Biso   1.000  H
  H644     1.0000 0.81787  0.18643  0.09473  Biso   1.000  H
  C786     1.0000 0.87576  0.17863  0.08184  Biso   1.000  C
  C787     1.0000 0.90239  0.16389  0.08289  Biso   1.000  C
  H645     1.0000 0.91397  0.16373  0.09653  Biso   1.000  H
  C788     1.0000 0.91142  0.14963  0.06382  Biso   1.000  C
  H646     1.0000 0.92837  0.13913  0.06463  Biso   1.000  H
  C789     1.0000 0.89449  0.15128  0.04322  Biso   1.000  C
  H647     1.0000 0.90117  0.14293  0.03013  Biso   1.000  H
  C790     1.0000 0.86819  0.16522  0.04246  Biso   1.000  C
  C791     1.0000 0.85976  0.17963  0.06207  Biso   1.000  C
  H648     1.0000 0.84277  0.19003  0.06133  Biso   1.000  H
  C792     1.0000 0.84938  0.16734  0.02092  Biso   1.000  C
  O208     1.0000 0.00285  0.45872  0.21380  Biso   1.000  O
  O209     1.0000 0.95615  0.44157  0.18968  Biso   1.000  O
  O210     1.0000 0.89913  0.29094  0.18382  Biso   1.000  O
  O211     1.0000 0.86922  0.19123  0.10164  Biso   1.000  O
  O212     1.0000 0.82502  0.17940  0.02190  Biso   1.000  O
  O213     1.0000 0.85908  0.15621  0.00354  Biso   1.000  O
  O214     1.0000 0.73094  0.14254  0.17012  Biso   1.000  O
  O215     1.0000 0.58311  0.08448  0.17449  Biso   1.000  O
  O216     1.0000 0.56261  0.02582  0.19014  Biso   1.000  O
  Zn25     1.0000 0.32407  0.16883  0.97234  Biso   1.000  Zn
  C793     1.0000 0.76524  0.64003  0.96330  Biso   1.000  C
  C794     1.0000 0.72325  0.62828  0.95984  Biso   1.000  C
  C795     1.0000 0.71376  0.65121  0.94531  Biso   1.000  C
  H649     1.0000 0.73347  0.67073  0.93633  Biso   1.000  H
  C796     1.0000 0.67596  0.64481  0.94440  Biso   1.000  C
  H650     1.0000 0.66997  0.66013  0.93483  Biso   1.000  H
  C797     1.0000 0.64743  0.61659  0.95716  Biso   1.000  C
  H651     1.0000 0.62167  0.61253  0.95643  Biso   1.000  H
  C798     1.0000 0.65563  0.59293  0.97159  Biso   1.000  C
  C799     1.0000 0.69400  0.59903  0.97287  Biso   1.000  C
  H652     1.0000 0.69987  0.58363  0.98243  Biso   1.000  H
  C800     1.0000 0.62882  0.53956  0.99826  Biso   1.000  C
  H653     1.0000 0.63677  0.52283  0.99033  Biso   1.000  H
  H654     1.0000 0.64887  0.55483  0.00953  Biso   1.000  H
  C801     1.0000 0.58777  0.51410  0.00928  Biso   1.000  C
  C802     1.0000 0.55657  0.48477  0.99680  Biso   1.000  C
  C803     1.0000 0.51898  0.46569  0.00629  Biso   1.000  C
  C804     1.0000 0.51317  0.47231  0.02827  Biso   1.000  C
  C805     1.0000 0.54496  0.50072  0.04065  Biso   1.000  C
  C806     1.0000 0.58329  0.52399  0.03053  Biso   1.000  C
  C807     1.0000 0.61663  0.55741  0.04375  Biso   1.000  C
  H655     1.0000 0.63237  0.57943  0.03393  Biso   1.000  H
  H656     1.0000 0.60557  0.56593  0.05553  Biso   1.000  H
  H657     1.0000 0.63317  0.54813  0.05023  Biso   1.000  H
  C808     1.0000 0.56268  0.47306  0.97364  Biso   1.000  C
  H658     1.0000 0.58547  0.46953  0.97373  Biso   1.000  H
  H659     1.0000 0.53947  0.44853  0.96933  Biso   1.000  H
  H660     1.0000 0.56697  0.49363  0.96313  Biso   1.000  H
  C809     1.0000 0.47223  0.45007  0.03847  Biso   1.000  C
  H661     1.0000 0.45627  0.42593  0.03023  Biso   1.000  H
  H662     1.0000 0.47427  0.44373  0.05383  Biso   1.000  H
  H663     1.0000 0.45997  0.46633  0.03783  Biso   1.000  H
  C810     1.0000 0.48357  0.43745  0.99257  Biso   1.000  C
  H664     1.0000 0.48877  0.44393  0.97673  Biso   1.000  H
  H665     1.0000 0.46057  0.43953  0.99683  Biso   1.000  H
  C811     1.0000 0.44258  0.36787  0.98610  Biso   1.000  C
  C812     1.0000 0.41721  0.37488  0.97281  Biso   1.000  C
  H666     1.0000 0.42257  0.40083  0.97053  Biso   1.000  H
  C813     1.0000 0.38391  0.34313  0.96301  Biso   1.000  C
  H667     1.0000 0.36697  0.34783  0.95413  Biso   1.000  H
  C814     1.0000 0.37598  0.30438  0.96648  Biso   1.000  C
  H668     1.0000 0.35367  0.28313  0.95993  Biso   1.000  H
  C815     1.0000 0.40135  0.29737  0.97977  Biso   1.000  C
  C816     1.0000 0.43465  0.32912  0.98957  Biso   1.000  C
  H669     1.0000 0.45167  0.32443  0.99843  Biso   1.000  H
  C817     1.0000 0.39308  0.25628  0.98381  Biso   1.000  C
  C818     1.0000 0.53872  0.50913  0.06457  Biso   1.000  C
  H670     1.0000 0.56367  0.52023  0.07273  Biso   1.000  H
  H671     1.0000 0.51977  0.48453  0.07193  Biso   1.000  H
  C819     1.0000 0.51197  0.54242  0.08482  Biso   1.000  C
  C820     1.0000 0.49723  0.56905  0.08377  Biso   1.000  C
  H672     1.0000 0.49707  0.58063  0.07013  Biso   1.000  H
  C821     1.0000 0.48297  0.57808  0.10284  Biso   1.000  C
  H673     1.0000 0.47247  0.59503  0.10203  Biso   1.000  H
  C822     1.0000 0.48462  0.56115  0.12344  Biso   1.000  C
  H674     1.0000 0.47627  0.56783  0.13653  Biso   1.000  H
  C823     1.0000 0.49856  0.53485  0.12420  Biso   1.000  C
  C824     1.0000 0.51297  0.52642  0.10459  Biso   1.000  C
  H675     1.0000 0.52337  0.50943  0.10533  Biso   1.000  H
  C825     1.0000 0.50068  0.51604  0.14574  Biso   1.000  C
  O217     1.0000 0.79206  0.66951  0.95286  Biso   1.000  O
  O218     1.0000 0.77491  0.62281  0.97698  Biso   1.000  O
  O219     1.0000 0.62428  0.56579  0.98284  Biso   1.000  O
  O220     1.0000 0.52457  0.53588  0.06502  Biso   1.000  O
  O221     1.0000 0.51274  0.49168  0.14476  Biso   1.000  O
  O222     1.0000 0.48955  0.52574  0.16312  Biso   1.000  O
  O223     1.0000 0.47588  0.39760  0.99654  Biso   1.000  O
  O224     1.0000 0.41782  0.24977  0.99217  Biso   1.000  O
  O225     1.0000 0.35916  0.22927  0.97652  Biso   1.000  O
  C826     1.0000 0.45854  0.02663  0.20336  Biso   1.000  C
  C827     1.0000 0.42830  0.03838  0.20682  Biso   1.000  C
  C828     1.0000 0.39588  0.01545  0.22135  Biso   1.000  C
  H676     1.0000 0.39607  0.99593  0.23033  Biso   1.000  H
  C829     1.0000 0.36448  0.02185  0.22226  Biso   1.000  C
  H677     1.0000 0.34317  0.00653  0.23183  Biso   1.000  H
  C830     1.0000 0.36417  0.05007  0.20950  Biso   1.000  C
  H678     1.0000 0.34247  0.05413  0.21023  Biso   1.000  H
  C831     1.0000 0.39603  0.07373  0.19507  Biso   1.000  C
  C832     1.0000 0.42830  0.06763  0.19379  Biso   1.000  C
  H679     1.0000 0.44957  0.08303  0.18423  Biso   1.000  H
  C833     1.0000 0.42259  0.12710  0.16840  Biso   1.000  C
  H680     1.0000 0.44727  0.14383  0.17633  Biso   1.000  H
  H681     1.0000 0.42737  0.11183  0.15713  Biso   1.000  H
  C834     1.0000 0.40700  0.15256  0.15738  Biso   1.000  C
  C835     1.0000 0.40513  0.18189  0.16986  Biso   1.000  C
  C836     1.0000 0.38662  0.20097  0.16037  Biso   1.000  C
  C837     1.0000 0.37419  0.19435  0.13839  Biso   1.000  C
  C838     1.0000 0.37757  0.16594  0.12601  Biso   1.000  C
  C839     1.0000 0.39263  0.14267  0.13613  Biso   1.000  C
  C840     1.0000 0.39255  0.10925  0.12291  Biso   1.000  C
  H682     1.0000 0.38627  0.08723  0.13273  Biso   1.000  H
  H683     1.0000 0.37297  0.10073  0.11113  Biso   1.000  H
  H684     1.0000 0.41837  0.11853  0.11643  Biso   1.000  H
  C841     1.0000 0.42295  0.19360  0.19302  Biso   1.000  C
  H685     1.0000 0.44927  0.19713  0.19293  Biso   1.000  H
  H686     1.0000 0.42427  0.21813  0.19733  Biso   1.000  H
  H687     1.0000 0.40667  0.17303  0.20353  Biso   1.000  H
  C842     1.0000 0.35549  0.21659  0.12819  Biso   1.000  C
  H688     1.0000 0.36367  0.24073  0.13643  Biso   1.000  H
  H689     1.0000 0.36387  0.22293  0.11283  Biso   1.000  H
  H690     1.0000 0.32697  0.20033  0.12883  Biso   1.000  H
  C843     1.0000 0.37945  0.22921  0.17409  Biso   1.000  C
  H691     1.0000 0.37817  0.22273  0.18993  Biso   1.000  H
  H692     1.0000 0.35437  0.22713  0.16983  Biso   1.000  H
  C844     1.0000 0.40804  0.29879  0.18056  Biso   1.000  C
  C845     1.0000 0.37566  0.29178  0.19385  Biso   1.000  C
  H693     1.0000 0.35507  0.26583  0.19613  Biso   1.000  H
  C846     1.0000 0.37411  0.32353  0.20365  Biso   1.000  C
  H694     1.0000 0.35247  0.31883  0.21253  Biso   1.000  H
  C847     1.0000 0.40493  0.36228  0.20018  Biso   1.000  C
  H695     1.0000 0.40387  0.38353  0.20673  Biso   1.000  H
  C848     1.0000 0.43731  0.36929  0.18689  Biso   1.000  C
  C849     1.0000 0.43886  0.33754  0.17709  Biso   1.000  C
  H696     1.0000 0.46057  0.34223  0.16823  Biso   1.000  H
  C850     1.0000 0.47013  0.41038  0.18285  Biso   1.000  C
  C851     1.0000 0.36292  0.15753  0.10209  Biso   1.000  C
  H697     1.0000 0.37677  0.14643  0.09393  Biso   1.000  H
  H698     1.0000 0.36857  0.18213  0.09473  Biso   1.000  H
  C852     1.0000 0.30288  0.12424  0.08184  Biso   1.000  C
  C853     1.0000 0.26151  0.09761  0.08289  Biso   1.000  C
  H699     1.0000 0.24977  0.08603  0.09653  Biso   1.000  H
  C854     1.0000 0.23822  0.08858  0.06382  Biso   1.000  C
  H700     1.0000 0.21077  0.07163  0.06463  Biso   1.000  H
  C855     1.0000 0.25680  0.10551  0.04322  Biso   1.000  C
  H701     1.0000 0.24177  0.09883  0.03013  Biso   1.000  H
  C856     1.0000 0.29704  0.13181  0.04246  Biso   1.000  C
  C857     1.0000 0.31988  0.14024  0.06207  Biso   1.000  C
  H702     1.0000 0.34727  0.15723  0.06133  Biso   1.000  H
  C858     1.0000 0.31797  0.15062  0.02092  Biso   1.000  C
  O226     1.0000 0.45588  0.99715  0.21380  Biso   1.000  O
  O227     1.0000 0.48543  0.04385  0.18968  Biso   1.000  O
  O228     1.0000 0.39182  0.10087  0.18382  Biso   1.000  O
  O229     1.0000 0.32202  0.13078  0.10164  Biso   1.000  O
  O230     1.0000 0.35439  0.17498  0.02190  Biso   1.000  O
  O231     1.0000 0.29714  0.14092  0.00354  Biso   1.000  O
  O232     1.0000 0.41161  0.26906  0.17012  Biso   1.000  O
  O233     1.0000 0.50138  0.41689  0.17449  Biso   1.000  O
  O234     1.0000 0.46322  0.43739  0.19014  Biso   1.000  O
  Zn26     1.0000 0.48857  0.49784  0.19433  Biso   1.000  Zn
  C859     1.0000 0.02663  0.45854  0.29664  Biso   1.000  C
  C860     1.0000 0.03838  0.42830  0.29318  Biso   1.000  C
  C861     1.0000 0.01545  0.39588  0.27865  Biso   1.000  C
  H703     1.0000 0.99593  0.39607  0.26967  Biso   1.000  H
  C862     1.0000 0.02185  0.36448  0.27774  Biso   1.000  C
  H704     1.0000 0.00653  0.34317  0.26817  Biso   1.000  H
  C863     1.0000 0.05007  0.36417  0.29050  Biso   1.000  C
  H705     1.0000 0.05413  0.34247  0.28977  Biso   1.000  H
  C864     1.0000 0.07373  0.39603  0.30493  Biso   1.000  C
  C865     1.0000 0.06763  0.42830  0.30621  Biso   1.000  C
  H706     1.0000 0.08303  0.44957  0.31577  Biso   1.000  H
  C866     1.0000 0.12710  0.42259  0.33160  Biso   1.000  C
  H707     1.0000 0.14383  0.44727  0.32367  Biso   1.000  H
  H708     1.0000 0.11183  0.42737  0.34287  Biso   1.000  H
  C867     1.0000 0.15256  0.40700  0.34262  Biso   1.000  C
  C868     1.0000 0.18189  0.40513  0.33014  Biso   1.000  C
  C869     1.0000 0.20097  0.38662  0.33963  Biso   1.000  C
  C870     1.0000 0.19435  0.37419  0.36161  Biso   1.000  C
  C871     1.0000 0.16594  0.37757  0.37399  Biso   1.000  C
  C872     1.0000 0.14267  0.39263  0.36387  Biso   1.000  C
  C873     1.0000 0.10925  0.39255  0.37709  Biso   1.000  C
  H709     1.0000 0.08723  0.38627  0.36727  Biso   1.000  H
  H710     1.0000 0.10073  0.37297  0.38887  Biso   1.000  H
  H711     1.0000 0.11853  0.41837  0.38357  Biso   1.000  H
  C874     1.0000 0.19360  0.42295  0.30698  Biso   1.000  C
  H712     1.0000 0.19713  0.44927  0.30707  Biso   1.000  H
  H713     1.0000 0.21813  0.42427  0.30267  Biso   1.000  H
  H714     1.0000 0.17303  0.40667  0.29647  Biso   1.000  H
  C875     1.0000 0.21659  0.35549  0.37181  Biso   1.000  C
  H715     1.0000 0.24073  0.36367  0.36357  Biso   1.000  H
  H716     1.0000 0.22293  0.36387  0.38717  Biso   1.000  H
  H717     1.0000 0.20033  0.32697  0.37117  Biso   1.000  H
  C876     1.0000 0.22921  0.37945  0.32591  Biso   1.000  C
  H718     1.0000 0.22273  0.37817  0.31007  Biso   1.000  H
  H719     1.0000 0.22713  0.35437  0.33017  Biso   1.000  H
  C877     1.0000 0.29879  0.40804  0.31944  Biso   1.000  C
  C878     1.0000 0.29178  0.37566  0.30615  Biso   1.000  C
  H720     1.0000 0.26583  0.35507  0.30387  Biso   1.000  H
  C879     1.0000 0.32353  0.37411  0.29635  Biso   1.000  C
  H721     1.0000 0.31883  0.35247  0.28747  Biso   1.000  H
  C880     1.0000 0.36228  0.40493  0.29982  Biso   1.000  C
  H722     1.0000 0.38353  0.40387  0.29327  Biso   1.000  H
  C881     1.0000 0.36929  0.43731  0.31311  Biso   1.000  C
  C882     1.0000 0.33754  0.43886  0.32291  Biso   1.000  C
  H723     1.0000 0.34223  0.46057  0.33177  Biso   1.000  H
  C883     1.0000 0.41038  0.47013  0.31715  Biso   1.000  C
  C884     1.0000 0.15753  0.36292  0.39791  Biso   1.000  C
  H724     1.0000 0.14643  0.37677  0.40607  Biso   1.000  H
  H725     1.0000 0.18213  0.36857  0.40527  Biso   1.000  H
  C885     1.0000 0.12424  0.30288  0.41816  Biso   1.000  C
  C886     1.0000 0.09761  0.26151  0.41711  Biso   1.000  C
  H726     1.0000 0.08603  0.24977  0.40347  Biso   1.000  H
  C887     1.0000 0.08858  0.23822  0.43618  Biso   1.000  C
  H727     1.0000 0.07163  0.21077  0.43537  Biso   1.000  H
  C888     1.0000 0.10551  0.25680  0.45678  Biso   1.000  C
  H728     1.0000 0.09883  0.24177  0.46987  Biso   1.000  H
  C889     1.0000 0.13181  0.29704  0.45754  Biso   1.000  C
  C890     1.0000 0.14024  0.31988  0.43793  Biso   1.000  C
  H729     1.0000 0.15723  0.34727  0.43867  Biso   1.000  H
  C891     1.0000 0.15062  0.31797  0.47908  Biso   1.000  C
  O235     1.0000 0.99715  0.45588  0.28620  Biso   1.000  O
  O236     1.0000 0.04385  0.48543  0.31032  Biso   1.000  O
  O237     1.0000 0.10087  0.39182  0.31618  Biso   1.000  O
  O238     1.0000 0.13078  0.32202  0.39836  Biso   1.000  O
  O239     1.0000 0.17498  0.35439  0.47810  Biso   1.000  O
  O240     1.0000 0.14092  0.29714  0.49646  Biso   1.000  O
  O241     1.0000 0.26906  0.41161  0.32988  Biso   1.000  O
  O242     1.0000 0.41689  0.50138  0.32551  Biso   1.000  O
  O243     1.0000 0.43739  0.46322  0.30986  Biso   1.000  O
  Zn27     1.0000 0.49784  0.48857  0.30567  Biso   1.000  Zn
  Zn28     1.0000 0.16883  0.32407  0.52766  Biso   1.000  Zn
  C892     1.0000 0.64003  0.76524  0.53670  Biso   1.000  C
  C893     1.0000 0.62828  0.72325  0.54016  Biso   1.000  C
  C894     1.0000 0.65121  0.71376  0.55469  Biso   1.000  C
  H730     1.0000 0.67073  0.73347  0.56367  Biso   1.000  H
  C895     1.0000 0.64481  0.67596  0.55560  Biso   1.000  C
  H731     1.0000 0.66013  0.66997  0.56517  Biso   1.000  H
  C896     1.0000 0.61659  0.64743  0.54284  Biso   1.000  C
  H732     1.0000 0.61253  0.62167  0.54357  Biso   1.000  H
  C897     1.0000 0.59293  0.65563  0.52841  Biso   1.000  C
  C898     1.0000 0.59903  0.69400  0.52713  Biso   1.000  C
  H733     1.0000 0.58363  0.69987  0.51757  Biso   1.000  H
  C899     1.0000 0.53956  0.62882  0.50174  Biso   1.000  C
  H734     1.0000 0.52283  0.63677  0.50967  Biso   1.000  H
  H735     1.0000 0.55483  0.64887  0.49047  Biso   1.000  H
  C900     1.0000 0.51410  0.58777  0.49072  Biso   1.000  C
  C901     1.0000 0.48477  0.55657  0.50320  Biso   1.000  C
  C902     1.0000 0.46569  0.51898  0.49371  Biso   1.000  C
  C903     1.0000 0.47231  0.51317  0.47173  Biso   1.000  C
  C904     1.0000 0.50072  0.54496  0.45935  Biso   1.000  C
  C905     1.0000 0.52399  0.58329  0.46947  Biso   1.000  C
  C906     1.0000 0.55741  0.61663  0.45625  Biso   1.000  C
  H736     1.0000 0.57943  0.63237  0.46607  Biso   1.000  H
  H737     1.0000 0.56593  0.60557  0.44447  Biso   1.000  H
  H738     1.0000 0.54813  0.63317  0.44977  Biso   1.000  H
  C907     1.0000 0.47306  0.56268  0.52636  Biso   1.000  C
  H739     1.0000 0.46953  0.58547  0.52627  Biso   1.000  H
  H740     1.0000 0.44853  0.53947  0.53067  Biso   1.000  H
  H741     1.0000 0.49363  0.56697  0.53687  Biso   1.000  H
  C908     1.0000 0.45007  0.47223  0.46153  Biso   1.000  C
  H742     1.0000 0.42593  0.45627  0.46977  Biso   1.000  H
  H743     1.0000 0.44373  0.47427  0.44617  Biso   1.000  H
  H744     1.0000 0.46633  0.45997  0.46217  Biso   1.000  H
  C909     1.0000 0.43745  0.48357  0.50743  Biso   1.000  C
  H745     1.0000 0.44393  0.48877  0.52327  Biso   1.000  H
  H746     1.0000 0.43953  0.46057  0.50317  Biso   1.000  H
  C910     1.0000 0.36787  0.44258  0.51390  Biso   1.000  C
  C911     1.0000 0.37488  0.41721  0.52719  Biso   1.000  C
  H747     1.0000 0.40083  0.42257  0.52947  Biso   1.000  H
  C912     1.0000 0.34313  0.38391  0.53699  Biso   1.000  C
  H748     1.0000 0.34783  0.36697  0.54587  Biso   1.000  H
  C913     1.0000 0.30438  0.37598  0.53352  Biso   1.000  C
  H749     1.0000 0.28313  0.35367  0.54007  Biso   1.000  H
  C914     1.0000 0.29737  0.40135  0.52023  Biso   1.000  C
  C915     1.0000 0.32912  0.43465  0.51043  Biso   1.000  C
  H750     1.0000 0.32443  0.45167  0.50157  Biso   1.000  H
  C916     1.0000 0.25628  0.39308  0.51619  Biso   1.000  C
  C917     1.0000 0.50913  0.53872  0.43543  Biso   1.000  C
  H751     1.0000 0.52023  0.56367  0.42727  Biso   1.000  H
  H752     1.0000 0.48453  0.51977  0.42807  Biso   1.000  H
  C918     1.0000 0.54242  0.51197  0.41518  Biso   1.000  C
  C919     1.0000 0.56905  0.49723  0.41623  Biso   1.000  C
  H753     1.0000 0.58063  0.49707  0.42987  Biso   1.000  H
  C920     1.0000 0.57808  0.48297  0.39716  Biso   1.000  C
  H754     1.0000 0.59503  0.47247  0.39797  Biso   1.000  H
  C921     1.0000 0.56115  0.48462  0.37656  Biso   1.000  C
  H755     1.0000 0.56783  0.47627  0.36347  Biso   1.000  H
  C922     1.0000 0.53485  0.49856  0.37580  Biso   1.000  C
  C923     1.0000 0.52642  0.51297  0.39541  Biso   1.000  C
  H756     1.0000 0.50943  0.52337  0.39467  Biso   1.000  H
  C924     1.0000 0.51604  0.50068  0.35426  Biso   1.000  C
  O244     1.0000 0.66951  0.79206  0.54714  Biso   1.000  O
  O245     1.0000 0.62281  0.77491  0.52302  Biso   1.000  O
  O246     1.0000 0.56579  0.62428  0.51716  Biso   1.000  O
  O247     1.0000 0.53588  0.52457  0.43498  Biso   1.000  O
  O248     1.0000 0.49168  0.51274  0.35524  Biso   1.000  O
  O249     1.0000 0.52574  0.48955  0.33688  Biso   1.000  O
  O250     1.0000 0.39760  0.47588  0.50346  Biso   1.000  O
  O251     1.0000 0.24977  0.41782  0.50783  Biso   1.000  O
  O252     1.0000 0.22927  0.35916  0.52348  Biso   1.000  O
  Zn29     1.0000 0.99073  0.50216  0.30567  Biso   1.000  Zn
  C925     1.0000 0.43190  0.97337  0.29664  Biso   1.000  C
  C926     1.0000 0.38991  0.96162  0.29318  Biso   1.000  C
  C927     1.0000 0.38042  0.98455  0.27865  Biso   1.000  C
  H757     1.0000 0.40013  0.00407  0.26967  Biso   1.000  H
  C928     1.0000 0.34262  0.97815  0.27774  Biso   1.000  C
  H758     1.0000 0.33663  0.99347  0.26817  Biso   1.000  H
  C929     1.0000 0.31409  0.94993  0.29050  Biso   1.000  C
  H759     1.0000 0.28833  0.94587  0.28977  Biso   1.000  H
  C930     1.0000 0.32229  0.92627  0.30493  Biso   1.000  C
  C931     1.0000 0.36066  0.93237  0.30621  Biso   1.000  C
  H760     1.0000 0.36653  0.91697  0.31577  Biso   1.000  H
  C932     1.0000 0.29548  0.87290  0.33160  Biso   1.000  C
  H761     1.0000 0.30343  0.85617  0.32367  Biso   1.000  H
  H762     1.0000 0.31553  0.88817  0.34287  Biso   1.000  H
  C933     1.0000 0.25443  0.84744  0.34262  Biso   1.000  C
  C934     1.0000 0.22323  0.81811  0.33014  Biso   1.000  C
  C935     1.0000 0.18564  0.79903  0.33963  Biso   1.000  C
  C936     1.0000 0.17983  0.80565  0.36161  Biso   1.000  C
  C937     1.0000 0.21162  0.83406  0.37399  Biso   1.000  C
  C938     1.0000 0.24995  0.85733  0.36387  Biso   1.000  C
  C939     1.0000 0.28329  0.89075  0.37709  Biso   1.000  C
  H763     1.0000 0.29903  0.91277  0.36727  Biso   1.000  H
  H764     1.0000 0.27223  0.89927  0.38887  Biso   1.000  H
  H765     1.0000 0.29983  0.88147  0.38357  Biso   1.000  H
  C940     1.0000 0.22934  0.80640  0.30698  Biso   1.000  C
  H766     1.0000 0.25213  0.80287  0.30707  Biso   1.000  H
  H767     1.0000 0.20613  0.78187  0.30267  Biso   1.000  H
  H768     1.0000 0.23363  0.82697  0.29647  Biso   1.000  H
  C941     1.0000 0.13889  0.78341  0.37181  Biso   1.000  C
  H769     1.0000 0.12293  0.75927  0.36357  Biso   1.000  H
  H770     1.0000 0.14093  0.77707  0.38717  Biso   1.000  H
  H771     1.0000 0.12663  0.79967  0.37117  Biso   1.000  H
  C942     1.0000 0.15023  0.77079  0.32591  Biso   1.000  C
  H772     1.0000 0.15543  0.77727  0.31007  Biso   1.000  H
  H773     1.0000 0.12723  0.77287  0.33017  Biso   1.000  H
  C943     1.0000 0.10924  0.70121  0.31944  Biso   1.000  C
  C944     1.0000 0.08387  0.70822  0.30615  Biso   1.000  C
  H774     1.0000 0.08923  0.73417  0.30387  Biso   1.000  H
  C945     1.0000 0.05057  0.67647  0.29635  Biso   1.000  C
  H775     1.0000 0.03363  0.68117  0.28747  Biso   1.000  H
  C946     1.0000 0.04264  0.63772  0.29982  Biso   1.000  C
  H776     1.0000 0.02033  0.61647  0.29327  Biso   1.000  H
  C947     1.0000 0.06801  0.63071  0.31311  Biso   1.000  C
  C948     1.0000 0.10131  0.66246  0.32291  Biso   1.000  C
  H777     1.0000 0.11833  0.65777  0.33177  Biso   1.000  H
  C949     1.0000 0.05974  0.58962  0.31715  Biso   1.000  C
  C950     1.0000 0.20538  0.84247  0.39791  Biso   1.000  C
  H778     1.0000 0.23033  0.85357  0.40607  Biso   1.000  H
  H779     1.0000 0.18643  0.81787  0.40527  Biso   1.000  H
  C951     1.0000 0.17863  0.87576  0.41816  Biso   1.000  C
  C952     1.0000 0.16389  0.90239  0.41711  Biso   1.000  C
  H780     1.0000 0.16373  0.91397  0.40347  Biso   1.000  H
  C953     1.0000 0.14963  0.91142  0.43618  Biso   1.000  C
  H781     1.0000 0.13913  0.92837  0.43537  Biso   1.000  H
  C954     1.0000 0.15128  0.89449  0.45678  Biso   1.000  C
  H782     1.0000 0.14293  0.90117  0.46987  Biso   1.000  H
  C955     1.0000 0.16522  0.86819  0.45754  Biso   1.000  C
  C956     1.0000 0.17963  0.85976  0.43793  Biso   1.000  C
  H783     1.0000 0.19003  0.84277  0.43867  Biso   1.000  H
  C957     1.0000 0.16734  0.84938  0.47908  Biso   1.000  C
  O253     1.0000 0.45872  0.00285  0.28620  Biso   1.000  O
  O254     1.0000 0.44157  0.95615  0.31032  Biso   1.000  O
  O255     1.0000 0.29094  0.89913  0.31618  Biso   1.000  O
  O256     1.0000 0.19123  0.86922  0.39836  Biso   1.000  O
  O257     1.0000 0.17940  0.82502  0.47810  Biso   1.000  O
  O258     1.0000 0.15621  0.85908  0.49646  Biso   1.000  O
  O259     1.0000 0.14254  0.73094  0.32988  Biso   1.000  O
  O260     1.0000 0.08448  0.58311  0.32551  Biso   1.000  O
  O261     1.0000 0.02582  0.56261  0.30986  Biso   1.000  O
  C958     1.0000 0.12520  0.35997  0.53670  Biso   1.000  C
  C959     1.0000 0.09496  0.37172  0.54016  Biso   1.000  C
  C960     1.0000 0.06254  0.34879  0.55469  Biso   1.000  C
  H784     1.0000 0.06273  0.32927  0.56367  Biso   1.000  H
  C961     1.0000 0.03114  0.35519  0.55560  Biso   1.000  C
  H785     1.0000 0.00983  0.33987  0.56517  Biso   1.000  H
  C962     1.0000 0.03083  0.38341  0.54284  Biso   1.000  C
  H786     1.0000 0.00913  0.38747  0.54357  Biso   1.000  H
  C963     1.0000 0.06269  0.40707  0.52841  Biso   1.000  C
  C964     1.0000 0.09496  0.40097  0.52713  Biso   1.000  C
  H787     1.0000 0.11623  0.41637  0.51757  Biso   1.000  H
  C965     1.0000 0.08925  0.46044  0.50174  Biso   1.000  C
  H788     1.0000 0.11393  0.47717  0.50967  Biso   1.000  H
  H789     1.0000 0.09403  0.44517  0.49047  Biso   1.000  H
  C966     1.0000 0.07366  0.48590  0.49072  Biso   1.000  C
  C967     1.0000 0.07179  0.51523  0.50320  Biso   1.000  C
  C968     1.0000 0.05328  0.53431  0.49371  Biso   1.000  C
  C969     1.0000 0.04085  0.52769  0.47173  Biso   1.000  C
  C970     1.0000 0.04423  0.49928  0.45935  Biso   1.000  C
  C971     1.0000 0.05929  0.47601  0.46947  Biso   1.000  C
  C972     1.0000 0.05921  0.44259  0.45625  Biso   1.000  C
  H790     1.0000 0.05293  0.42057  0.46607  Biso   1.000  H
  H791     1.0000 0.03963  0.43407  0.44447  Biso   1.000  H
  H792     1.0000 0.08503  0.45187  0.44977  Biso   1.000  H
  C973     1.0000 0.08961  0.52694  0.52636  Biso   1.000  C
  H793     1.0000 0.11593  0.53047  0.52627  Biso   1.000  H
  H794     1.0000 0.09093  0.55147  0.53067  Biso   1.000  H
  H795     1.0000 0.07333  0.50637  0.53687  Biso   1.000  H
  C974     1.0000 0.02215  0.54993  0.46153  Biso   1.000  C
  H796     1.0000 0.03033  0.57407  0.46977  Biso   1.000  H
  H797     1.0000 0.03053  0.55627  0.44617  Biso   1.000  H
  H798     1.0000 0.99363  0.53367  0.46217  Biso   1.000  H
  C975     1.0000 0.04611  0.56255  0.50743  Biso   1.000  C
  H799     1.0000 0.04483  0.55607  0.52327  Biso   1.000  H
  H800     1.0000 0.02103  0.56047  0.50317  Biso   1.000  H
  C976     1.0000 0.07470  0.63213  0.51390  Biso   1.000  C
  C977     1.0000 0.04232  0.62512  0.52719  Biso   1.000  C
  H801     1.0000 0.02173  0.59917  0.52947  Biso   1.000  H
  C978     1.0000 0.04077  0.65687  0.53699  Biso   1.000  C
  H802     1.0000 0.01913  0.65217  0.54587  Biso   1.000  H
  C979     1.0000 0.07159  0.69562  0.53352  Biso   1.000  C
  H803     1.0000 0.07053  0.71687  0.54007  Biso   1.000  H
  C980     1.0000 0.10397  0.70263  0.52023  Biso   1.000  C
  C981     1.0000 0.10552  0.67088  0.51043  Biso   1.000  C
  H804     1.0000 0.12723  0.67557  0.50157  Biso   1.000  H
  C982     1.0000 0.13679  0.74372  0.51619  Biso   1.000  C
  C983     1.0000 0.02958  0.49087  0.43543  Biso   1.000  C
  H805     1.0000 0.04343  0.47977  0.42727  Biso   1.000  H
  H806     1.0000 0.03523  0.51547  0.42807  Biso   1.000  H
  C984     1.0000 0.96954  0.45758  0.41518  Biso   1.000  C
  C985     1.0000 0.92817  0.43095  0.41623  Biso   1.000  C
  H807     1.0000 0.91643  0.41937  0.42987  Biso   1.000  H
  C986     1.0000 0.90488  0.42192  0.39716  Biso   1.000  C
  H808     1.0000 0.87743  0.40497  0.39797  Biso   1.000  H
  C987     1.0000 0.92346  0.43885  0.37656  Biso   1.000  C
  H809     1.0000 0.90843  0.43217  0.36347  Biso   1.000  H
  C988     1.0000 0.96370  0.46515  0.37580  Biso   1.000  C
  C989     1.0000 0.98654  0.47358  0.39541  Biso   1.000  C
  H810     1.0000 0.01393  0.49057  0.39467  Biso   1.000  H
  C990     1.0000 0.98463  0.48396  0.35426  Biso   1.000  C
  O262     1.0000 0.12254  0.33049  0.54714  Biso   1.000  O
  O263     1.0000 0.15209  0.37719  0.52302  Biso   1.000  O
  O264     1.0000 0.05848  0.43421  0.51716  Biso   1.000  O
  O265     1.0000 0.98868  0.46412  0.43498  Biso   1.000  O
  O266     1.0000 0.02105  0.50832  0.35524  Biso   1.000  O
  O267     1.0000 0.96380  0.47426  0.33688  Biso   1.000  O
  O268     1.0000 0.07827  0.60240  0.50346  Biso   1.000  O
  O269     1.0000 0.16804  0.75023  0.50783  Biso   1.000  O
  O270     1.0000 0.12988  0.77073  0.52348  Biso   1.000  O
  Zn30     1.0000 0.15524  0.83117  0.52766  Biso   1.000  Zn
  C991     1.0000 0.20813  0.90143  0.62997  Biso   1.000  C
  C992     1.0000 0.23837  0.94342  0.62651  Biso   1.000  C
  C993     1.0000 0.27079  0.95291  0.61198  Biso   1.000  C
  H811     1.0000 0.27060  0.93320  0.60300  Biso   1.000  H
  C994     1.0000 0.30219  0.99071  0.61107  Biso   1.000  C
  H812     1.0000 0.32350  0.99670  0.60150  Biso   1.000  H
  C995     1.0000 0.30250  0.01924  0.62383  Biso   1.000  C
  H813     1.0000 0.32420  0.04500  0.62310  Biso   1.000  H
  C996     1.0000 0.27064  0.01104  0.63826  Biso   1.000  C
  C997     1.0000 0.23837  0.97267  0.63954  Biso   1.000  C
  H814     1.0000 0.21710  0.96680  0.64910  Biso   1.000  H
  C998     1.0000 0.24408  0.03785  0.66493  Biso   1.000  C
  H815     1.0000 0.21940  0.02990  0.65700  Biso   1.000  H
  H816     1.0000 0.23930  0.01780  0.67620  Biso   1.000  H
  C999     1.0000 0.25967  0.07890  0.67595  Biso   1.000  C
  C1000    1.0000 0.26154  0.11010  0.66347  Biso   1.000  C
  C1001    1.0000 0.28005  0.14769  0.67296  Biso   1.000  C
  C1002    1.0000 0.29248  0.15350  0.69494  Biso   1.000  C
  C1003    1.0000 0.28910  0.12171  0.70732  Biso   1.000  C
  C1004    1.0000 0.27404  0.08338  0.69720  Biso   1.000  C
  C1005    1.0000 0.27412  0.05004  0.71042  Biso   1.000  C
  H817     1.0000 0.28040  0.03430  0.70060  Biso   1.000  H
  H818     1.0000 0.29370  0.06110  0.72220  Biso   1.000  H
  H819     1.0000 0.24830  0.03350  0.71690  Biso   1.000  H
  C1006    1.0000 0.24372  0.10399  0.64031  Biso   1.000  C
  H820     1.0000 0.21740  0.08120  0.64040  Biso   1.000  H
  H821     1.0000 0.24240  0.12720  0.63600  Biso   1.000  H
  H822     1.0000 0.26000  0.09970  0.62980  Biso   1.000  H
  C1007    1.0000 0.31118  0.19444  0.70514  Biso   1.000  C
  H823     1.0000 0.30300  0.21040  0.69690  Biso   1.000  H
  H824     1.0000 0.30280  0.19240  0.72050  Biso   1.000  H
  H825     1.0000 0.33970  0.20670  0.70450  Biso   1.000  H
  C1008    1.0000 0.28722  0.18310  0.65924  Biso   1.000  C
  H826     1.0000 0.28850  0.17790  0.64340  Biso   1.000  H
  H827     1.0000 0.31230  0.20610  0.66350  Biso   1.000  H
  C1009    1.0000 0.25863  0.22409  0.65277  Biso   1.000  C
  C1010    1.0000 0.29101  0.24946  0.63948  Biso   1.000  C
  H828     1.0000 0.31160  0.24410  0.63720  Biso   1.000  H
  C1011    1.0000 0.29256  0.28276  0.62968  Biso   1.000  C
  H829     1.0000 0.31420  0.29970  0.62080  Biso   1.000  H
  C1012    1.0000 0.26174  0.29069  0.63315  Biso   1.000  C
  H830     1.0000 0.26280  0.31300  0.62660  Biso   1.000  H
  C1013    1.0000 0.22936  0.26532  0.64644  Biso   1.000  C
  C1014    1.0000 0.22781  0.23202  0.65624  Biso   1.000  C
  H831     1.0000 0.20610  0.21500  0.66510  Biso   1.000  H
  C1015    1.0000 0.19654  0.27359  0.65048  Biso   1.000  C
  C1016    1.0000 0.30375  0.12795  0.73124  Biso   1.000  C
  H832     1.0000 0.28990  0.10300  0.73940  Biso   1.000  H
  H833     1.0000 0.29810  0.14690  0.73860  Biso   1.000  H
  C1017    1.0000 0.36379  0.15470  0.75149  Biso   1.000  C
  C1018    1.0000 0.40516  0.16944  0.75044  Biso   1.000  C
  H834     1.0000 0.41690  0.16960  0.73680  Biso   1.000  H
  C1019    1.0000 0.42845  0.18370  0.76951  Biso   1.000  C
  H835     1.0000 0.45590  0.19420  0.76870  Biso   1.000  H
  C1020    1.0000 0.40987  0.18205  0.79011  Biso   1.000  C
  H836     1.0000 0.42490  0.19040  0.80320  Biso   1.000  H
  C1021    1.0000 0.36963  0.16811  0.79087  Biso   1.000  C
  C1022    1.0000 0.34679  0.15370  0.77126  Biso   1.000  C
  H837     1.0000 0.31940  0.14330  0.77200  Biso   1.000  H
  C1023    1.0000 0.34870  0.16599  0.81241  Biso   1.000  C
  O271     1.0000 0.21079  0.87461  0.61953  Biso   1.000  O
  O272     1.0000 0.18124  0.89176  0.64365  Biso   1.000  O
  O273     1.0000 0.27485  0.04239  0.64951  Biso   1.000  O
  O274     1.0000 0.34465  0.14210  0.73169  Biso   1.000  O
  O275     1.0000 0.31228  0.15393  0.81143  Biso   1.000  O
  O276     1.0000 0.36953  0.17712  0.82979  Biso   1.000  O
  O277     1.0000 0.25506  0.19079  0.66321  Biso   1.000  O
  O278     1.0000 0.16529  0.24885  0.65884  Biso   1.000  O
  O279     1.0000 0.20345  0.30751  0.64319  Biso   1.000  O
  Zn31     1.0000 0.17809  0.34260  0.63901  Biso   1.000  Zn
  C1024    1.0000 0.90143  0.20813  0.87003  Biso   1.000  C
  C1025    1.0000 0.94342  0.23837  0.87349  Biso   1.000  C
  C1026    1.0000 0.95291  0.27079  0.88802  Biso   1.000  C
  H838     1.0000 0.93320  0.27060  0.89700  Biso   1.000  H
  C1027    1.0000 0.99071  0.30219  0.88893  Biso   1.000  C
  H839     1.0000 0.99670  0.32350  0.89850  Biso   1.000  H
  C1028    1.0000 0.01924  0.30250  0.87617  Biso   1.000  C
  H840     1.0000 0.04500  0.32420  0.87690  Biso   1.000  H
  C1029    1.0000 0.01104  0.27064  0.86174  Biso   1.000  C
  C1030    1.0000 0.97267  0.23837  0.86046  Biso   1.000  C
  H841     1.0000 0.96680  0.21710  0.85090  Biso   1.000  H
  C1031    1.0000 0.03785  0.24408  0.83507  Biso   1.000  C
  H842     1.0000 0.02990  0.21940  0.84300  Biso   1.000  H
  H843     1.0000 0.01780  0.23930  0.82380  Biso   1.000  H
  C1032    1.0000 0.07890  0.25967  0.82405  Biso   1.000  C
  C1033    1.0000 0.11010  0.26154  0.83653  Biso   1.000  C
  C1034    1.0000 0.14769  0.28005  0.82704  Biso   1.000  C
  C1035    1.0000 0.15350  0.29248  0.80506  Biso   1.000  C
  C1036    1.0000 0.12171  0.28910  0.79268  Biso   1.000  C
  C1037    1.0000 0.08338  0.27404  0.80280  Biso   1.000  C
  C1038    1.0000 0.05004  0.27412  0.78958  Biso   1.000  C
  H844     1.0000 0.03430  0.28040  0.79940  Biso   1.000  H
  H845     1.0000 0.06110  0.29370  0.77780  Biso   1.000  H
  H846     1.0000 0.03350  0.24830  0.78310  Biso   1.000  H
  C1039    1.0000 0.10399  0.24372  0.85969  Biso   1.000  C
  H847     1.0000 0.08120  0.21740  0.85960  Biso   1.000  H
  H848     1.0000 0.12720  0.24240  0.86400  Biso   1.000  H
  H849     1.0000 0.09970  0.26000  0.87020  Biso   1.000  H
  C1040    1.0000 0.19444  0.31118  0.79486  Biso   1.000  C
  H850     1.0000 0.21040  0.30300  0.80310  Biso   1.000  H
  H851     1.0000 0.19240  0.30280  0.77950  Biso   1.000  H
  H852     1.0000 0.20670  0.33970  0.79550  Biso   1.000  H
  C1041    1.0000 0.18310  0.28722  0.84076  Biso   1.000  C
  H853     1.0000 0.17790  0.28850  0.85660  Biso   1.000  H
  H854     1.0000 0.20610  0.31230  0.83650  Biso   1.000  H
  C1042    1.0000 0.22409  0.25863  0.84723  Biso   1.000  C
  C1043    1.0000 0.24946  0.29101  0.86052  Biso   1.000  C
  H855     1.0000 0.24410  0.31160  0.86280  Biso   1.000  H
  C1044    1.0000 0.28276  0.29256  0.87032  Biso   1.000  C
  H856     1.0000 0.29970  0.31420  0.87920  Biso   1.000  H
  C1045    1.0000 0.29069  0.26174  0.86685  Biso   1.000  C
  H857     1.0000 0.31300  0.26280  0.87340  Biso   1.000  H
  C1046    1.0000 0.26532  0.22936  0.85356  Biso   1.000  C
  C1047    1.0000 0.23202  0.22781  0.84376  Biso   1.000  C
  H858     1.0000 0.21500  0.20610  0.83490  Biso   1.000  H
  C1048    1.0000 0.27359  0.19654  0.84952  Biso   1.000  C
  C1049    1.0000 0.12795  0.30375  0.76876  Biso   1.000  C
  H859     1.0000 0.10300  0.28990  0.76060  Biso   1.000  H
  H860     1.0000 0.14690  0.29810  0.76140  Biso   1.000  H
  C1050    1.0000 0.15470  0.36379  0.74851  Biso   1.000  C
  C1051    1.0000 0.16944  0.40516  0.74956  Biso   1.000  C
  H861     1.0000 0.16960  0.41690  0.76320  Biso   1.000  H
  C1052    1.0000 0.18370  0.42845  0.73049  Biso   1.000  C
  H862     1.0000 0.19420  0.45590  0.73130  Biso   1.000  H
  C1053    1.0000 0.18205  0.40987  0.70989  Biso   1.000  C
  H863     1.0000 0.19040  0.42490  0.69680  Biso   1.000  H
  C1054    1.0000 0.16811  0.36963  0.70913  Biso   1.000  C
  C1055    1.0000 0.15370  0.34679  0.72874  Biso   1.000  C
  H864     1.0000 0.14330  0.31940  0.72800  Biso   1.000  H
  C1056    1.0000 0.16599  0.34870  0.68759  Biso   1.000  C
  O280     1.0000 0.87461  0.21079  0.88047  Biso   1.000  O
  O281     1.0000 0.89176  0.18124  0.85635  Biso   1.000  O
  O282     1.0000 0.04239  0.27485  0.85049  Biso   1.000  O
  O283     1.0000 0.14210  0.34465  0.76831  Biso   1.000  O
  O284     1.0000 0.15393  0.31228  0.68857  Biso   1.000  O
  O285     1.0000 0.17712  0.36953  0.67021  Biso   1.000  O
  O286     1.0000 0.19079  0.25506  0.83679  Biso   1.000  O
  O287     1.0000 0.24885  0.16529  0.84116  Biso   1.000  O
  O288     1.0000 0.30751  0.20345  0.85681  Biso   1.000  O
  Zn32     1.0000 0.34260  0.17809  0.86099  Biso   1.000  Zn
  C1057    1.0000 0.87480  0.23476  0.96330  Biso   1.000  C
  C1058    1.0000 0.90504  0.27675  0.95984  Biso   1.000  C
  C1059    1.0000 0.93746  0.28624  0.94531  Biso   1.000  C
  H865     1.0000 0.93727  0.26653  0.93633  Biso   1.000  H
  C1060    1.0000 0.96886  0.32404  0.94440  Biso   1.000  C
  H866     1.0000 0.99017  0.33003  0.93483  Biso   1.000  H
  C1061    1.0000 0.96917  0.35257  0.95716  Biso   1.000  C
  H867     1.0000 0.99087  0.37833  0.95643  Biso   1.000  H
  C1062    1.0000 0.93731  0.34437  0.97159  Biso   1.000  C
  C1063    1.0000 0.90504  0.30600  0.97287  Biso   1.000  C
  H868     1.0000 0.88377  0.30013  0.98243  Biso   1.000  H
  C1064    1.0000 0.91075  0.37118  0.99826  Biso   1.000  C
  H869     1.0000 0.88607  0.36323  0.99033  Biso   1.000  H
  H870     1.0000 0.90597  0.35113  0.00953  Biso   1.000  H
  C1065    1.0000 0.92634  0.41223  0.00928  Biso   1.000  C
  C1066    1.0000 0.92821  0.44343  0.99680  Biso   1.000  C
  C1067    1.0000 0.94672  0.48102  0.00629  Biso   1.000  C
  C1068    1.0000 0.95915  0.48683  0.02827  Biso   1.000  C
  C1069    1.0000 0.95577  0.45504  0.04065  Biso   1.000  C
  C1070    1.0000 0.94071  0.41671  0.03053  Biso   1.000  C
  C1071    1.0000 0.94079  0.38337  0.04375  Biso   1.000  C
  H871     1.0000 0.94707  0.36763  0.03393  Biso   1.000  H
  H872     1.0000 0.96037  0.39443  0.05553  Biso   1.000  H
  H873     1.0000 0.91497  0.36683  0.05023  Biso   1.000  H
  C1072    1.0000 0.91039  0.43732  0.97364  Biso   1.000  C
  H874     1.0000 0.88407  0.41453  0.97373  Biso   1.000  H
  H875     1.0000 0.90907  0.46053  0.96933  Biso   1.000  H
  H876     1.0000 0.92667  0.43303  0.96313  Biso   1.000  H
  C1073    1.0000 0.97785  0.52777  0.03847  Biso   1.000  C
  H877     1.0000 0.96967  0.54373  0.03023  Biso   1.000  H
  H878     1.0000 0.96947  0.52573  0.05383  Biso   1.000  H
  H879     1.0000 0.00637  0.54003  0.03783  Biso   1.000  H
  C1074    1.0000 0.95389  0.51643  0.99257  Biso   1.000  C
  H880     1.0000 0.95517  0.51123  0.97673  Biso   1.000  H
  H881     1.0000 0.97897  0.53943  0.99683  Biso   1.000  H
  C1075    1.0000 0.92530  0.55742  0.98610  Biso   1.000  C
  C1076    1.0000 0.95768  0.58279  0.97281  Biso   1.000  C
  H882     1.0000 0.97827  0.57743  0.97053  Biso   1.000  H
  C1077    1.0000 0.95923  0.61609  0.96301  Biso   1.000  C
  H883     1.0000 0.98087  0.63303  0.95413  Biso   1.000  H
  C1078    1.0000 0.92841  0.62402  0.96648  Biso   1.000  C
  H884     1.0000 0.92947  0.64633  0.95993  Biso   1.000  H
  C1079    1.0000 0.89603  0.59865  0.97977  Biso   1.000  C
  C1080    1.0000 0.89448  0.56535  0.98957  Biso   1.000  C
  H885     1.0000 0.87277  0.54833  0.99843  Biso   1.000  H
  C1081    1.0000 0.86321  0.60692  0.98381  Biso   1.000  C
  C1082    1.0000 0.97042  0.46128  0.06457  Biso   1.000  C
  H886     1.0000 0.95657  0.43633  0.07273  Biso   1.000  H
  H887     1.0000 0.96477  0.48023  0.07193  Biso   1.000  H
  C1083    1.0000 0.03046  0.48803  0.08482  Biso   1.000  C
  C1084    1.0000 0.07183  0.50277  0.08377  Biso   1.000  C
  H888     1.0000 0.08357  0.50293  0.07013  Biso   1.000  H
  C1085    1.0000 0.09512  0.51703  0.10284  Biso   1.000  C
  H889     1.0000 0.12257  0.52753  0.10203  Biso   1.000  H
  C1086    1.0000 0.07654  0.51538  0.12344  Biso   1.000  C
  H890     1.0000 0.09157  0.52373  0.13653  Biso   1.000  H
  C1087    1.0000 0.03630  0.50144  0.12420  Biso   1.000  C
  C1088    1.0000 0.01346  0.48703  0.10459  Biso   1.000  C
  H891     1.0000 0.98607  0.47663  0.10533  Biso   1.000  H
  C1089    1.0000 0.01537  0.49932  0.14574  Biso   1.000  C
  O289     1.0000 0.87746  0.20794  0.95286  Biso   1.000  O
  O290     1.0000 0.84791  0.22509  0.97698  Biso   1.000  O
  O291     1.0000 0.94152  0.37572  0.98284  Biso   1.000  O
  O292     1.0000 0.01132  0.47543  0.06502  Biso   1.000  O
  O293     1.0000 0.97895  0.48726  0.14476  Biso   1.000  O
  O294     1.0000 0.03620  0.51045  0.16312  Biso   1.000  O
  O295     1.0000 0.92173  0.52412  0.99654  Biso   1.000  O
  O296     1.0000 0.83196  0.58218  0.99217  Biso   1.000  O
  O297     1.0000 0.87012  0.64084  0.97652  Biso   1.000  O
  Zn33     1.0000 0.84476  0.67593  0.97234  Biso   1.000  Zn
  C1090    1.0000 0.56810  0.54146  0.20336  Biso   1.000  C
  C1091    1.0000 0.61009  0.57170  0.20682  Biso   1.000  C
  C1092    1.0000 0.61958  0.60412  0.22135  Biso   1.000  C
  H892     1.0000 0.59987  0.60393  0.23033  Biso   1.000  H
  C1093    1.0000 0.65738  0.63552  0.22226  Biso   1.000  C
  H893     1.0000 0.66337  0.65683  0.23183  Biso   1.000  H
  C1094    1.0000 0.68591  0.63583  0.20950  Biso   1.000  C
  H894     1.0000 0.71167  0.65753  0.21023  Biso   1.000  H
  C1095    1.0000 0.67771  0.60397  0.19507  Biso   1.000  C
  C1096    1.0000 0.63934  0.57170  0.19379  Biso   1.000  C
  H895     1.0000 0.63347  0.55043  0.18423  Biso   1.000  H
  C1097    1.0000 0.70452  0.57741  0.16840  Biso   1.000  C
  H896     1.0000 0.69657  0.55273  0.17633  Biso   1.000  H
  H897     1.0000 0.68447  0.57263  0.15713  Biso   1.000  H
  C1098    1.0000 0.74557  0.59300  0.15738  Biso   1.000  C
  C1099    1.0000 0.77677  0.59487  0.16986  Biso   1.000  C
  C1100    1.0000 0.81436  0.61338  0.16037  Biso   1.000  C
  C1101    1.0000 0.82017  0.62581  0.13839  Biso   1.000  C
  C1102    1.0000 0.78838  0.62243  0.12601  Biso   1.000  C
  C1103    1.0000 0.75005  0.60737  0.13613  Biso   1.000  C
  C1104    1.0000 0.71671  0.60745  0.12291  Biso   1.000  C
  H898     1.0000 0.70097  0.61373  0.13273  Biso   1.000  H
  H899     1.0000 0.72777  0.62703  0.11113  Biso   1.000  H
  H900     1.0000 0.70017  0.58163  0.11643  Biso   1.000  H
  C1105    1.0000 0.77066  0.57705  0.19302  Biso   1.000  C
  H901     1.0000 0.74787  0.55073  0.19293  Biso   1.000  H
  H902     1.0000 0.79387  0.57573  0.19733  Biso   1.000  H
  H903     1.0000 0.76637  0.59333  0.20353  Biso   1.000  H
  C1106    1.0000 0.86111  0.64451  0.12819  Biso   1.000  C
  H904     1.0000 0.87707  0.63633  0.13643  Biso   1.000  H
  H905     1.0000 0.85907  0.63613  0.11283  Biso   1.000  H
  H906     1.0000 0.87337  0.67303  0.12883  Biso   1.000  H
  C1107    1.0000 0.84977  0.62055  0.17409  Biso   1.000  C
  H907     1.0000 0.84457  0.62183  0.18993  Biso   1.000  H
  H908     1.0000 0.87277  0.64563  0.16983  Biso   1.000  H
  C1108    1.0000 0.89076  0.59196  0.18056  Biso   1.000  C
  C1109    1.0000 0.91613  0.62434  0.19385  Biso   1.000  C
  H909     1.0000 0.91077  0.64493  0.19613  Biso   1.000  H
  C1110    1.0000 0.94943  0.62589  0.20365  Biso   1.000  C
  H910     1.0000 0.96637  0.64753  0.21253  Biso   1.000  H
  C1111    1.0000 0.95736  0.59507  0.20018  Biso   1.000  C
  H911     1.0000 0.97967  0.59613  0.20673  Biso   1.000  H
  C1112    1.0000 0.93199  0.56269  0.18689  Biso   1.000  C
  C1113    1.0000 0.89869  0.56114  0.17709  Biso   1.000  C
  H912     1.0000 0.88167  0.53943  0.16823  Biso   1.000  H
  C1114    1.0000 0.94026  0.52987  0.18285  Biso   1.000  C
  C1115    1.0000 0.79462  0.63708  0.10209  Biso   1.000  C
  H913     1.0000 0.76967  0.62323  0.09393  Biso   1.000  H
  H914     1.0000 0.81357  0.63143  0.09473  Biso   1.000  H
  C1116    1.0000 0.82137  0.69712  0.08184  Biso   1.000  C
  C1117    1.0000 0.83611  0.73849  0.08289  Biso   1.000  C
  H915     1.0000 0.83627  0.75023  0.09653  Biso   1.000  H
  C1118    1.0000 0.85037  0.76178  0.06382  Biso   1.000  C
  H916     1.0000 0.86087  0.78923  0.06463  Biso   1.000  H
  C1119    1.0000 0.84872  0.74320  0.04322  Biso   1.000  C
  H917     1.0000 0.85707  0.75823  0.03013  Biso   1.000  H
  C1120    1.0000 0.83478  0.70296  0.04246  Biso   1.000  C
  C1121    1.0000 0.82037  0.68012  0.06207  Biso   1.000  C
  H918     1.0000 0.80997  0.65273  0.06133  Biso   1.000  H
  C1122    1.0000 0.83266  0.68203  0.02092  Biso   1.000  C
  O298     1.0000 0.54128  0.54412  0.21380  Biso   1.000  O
  O299     1.0000 0.55843  0.51457  0.18968  Biso   1.000  O
  O300     1.0000 0.70906  0.60818  0.18382  Biso   1.000  O
  O301     1.0000 0.80877  0.67798  0.10164  Biso   1.000  O
  O302     1.0000 0.82060  0.64561  0.02190  Biso   1.000  O
  O303     1.0000 0.84379  0.70286  0.00354  Biso   1.000  O
  O304     1.0000 0.85746  0.58839  0.17012  Biso   1.000  O
  O305     1.0000 0.91552  0.49862  0.17449  Biso   1.000  O
  O306     1.0000 0.97418  0.53678  0.19014  Biso   1.000  O
  Zn34     1.0000 0.00927  0.51143  0.19433  Biso   1.000  Zn
  C1123    1.0000 0.54146  0.56810  0.29664  Biso   1.000  C
  C1124    1.0000 0.57170  0.61009  0.29318  Biso   1.000  C
  C1125    1.0000 0.60412  0.61958  0.27865  Biso   1.000  C
  H919     1.0000 0.60393  0.59987  0.26967  Biso   1.000  H
  C1126    1.0000 0.63552  0.65738  0.27774  Biso   1.000  C
  H920     1.0000 0.65683  0.66337  0.26817  Biso   1.000  H
  C1127    1.0000 0.63583  0.68591  0.29050  Biso   1.000  C
  H921     1.0000 0.65753  0.71167  0.28977  Biso   1.000  H
  C1128    1.0000 0.60397  0.67771  0.30493  Biso   1.000  C
  C1129    1.0000 0.57170  0.63934  0.30621  Biso   1.000  C
  H922     1.0000 0.55043  0.63347  0.31577  Biso   1.000  H
  C1130    1.0000 0.57741  0.70452  0.33160  Biso   1.000  C
  H923     1.0000 0.55273  0.69657  0.32367  Biso   1.000  H
  H924     1.0000 0.57263  0.68447  0.34287  Biso   1.000  H
  C1131    1.0000 0.59300  0.74557  0.34262  Biso   1.000  C
  C1132    1.0000 0.59487  0.77677  0.33014  Biso   1.000  C
  C1133    1.0000 0.61338  0.81436  0.33963  Biso   1.000  C
  C1134    1.0000 0.62581  0.82017  0.36161  Biso   1.000  C
  C1135    1.0000 0.62243  0.78838  0.37399  Biso   1.000  C
  C1136    1.0000 0.60737  0.75005  0.36387  Biso   1.000  C
  C1137    1.0000 0.60745  0.71671  0.37709  Biso   1.000  C
  H925     1.0000 0.61373  0.70097  0.36727  Biso   1.000  H
  H926     1.0000 0.62703  0.72777  0.38887  Biso   1.000  H
  H927     1.0000 0.58163  0.70017  0.38357  Biso   1.000  H
  C1138    1.0000 0.57705  0.77066  0.30698  Biso   1.000  C
  H928     1.0000 0.55073  0.74787  0.30707  Biso   1.000  H
  H929     1.0000 0.57573  0.79387  0.30267  Biso   1.000  H
  H930     1.0000 0.59333  0.76637  0.29647  Biso   1.000  H
  C1139    1.0000 0.64451  0.86111  0.37181  Biso   1.000  C
  H931     1.0000 0.63633  0.87707  0.36357  Biso   1.000  H
  H932     1.0000 0.63613  0.85907  0.38717  Biso   1.000  H
  H933     1.0000 0.67303  0.87337  0.37117  Biso   1.000  H
  C1140    1.0000 0.62055  0.84977  0.32591  Biso   1.000  C
  H934     1.0000 0.62183  0.84457  0.31007  Biso   1.000  H
  H935     1.0000 0.64563  0.87277  0.33017  Biso   1.000  H
  C1141    1.0000 0.59196  0.89076  0.31944  Biso   1.000  C
  C1142    1.0000 0.62434  0.91613  0.30615  Biso   1.000  C
  H936     1.0000 0.64493  0.91077  0.30387  Biso   1.000  H
  C1143    1.0000 0.62589  0.94943  0.29635  Biso   1.000  C
  H937     1.0000 0.64753  0.96637  0.28747  Biso   1.000  H
  C1144    1.0000 0.59507  0.95736  0.29982  Biso   1.000  C
  H938     1.0000 0.59613  0.97967  0.29327  Biso   1.000  H
  C1145    1.0000 0.56269  0.93199  0.31311  Biso   1.000  C
  C1146    1.0000 0.56114  0.89869  0.32291  Biso   1.000  C
  H939     1.0000 0.53943  0.88167  0.33177  Biso   1.000  H
  C1147    1.0000 0.52987  0.94026  0.31715  Biso   1.000  C
  C1148    1.0000 0.63708  0.79462  0.39791  Biso   1.000  C
  H940     1.0000 0.62323  0.76967  0.40607  Biso   1.000  H
  H941     1.0000 0.63143  0.81357  0.40527  Biso   1.000  H
  C1149    1.0000 0.69712  0.82137  0.41816  Biso   1.000  C
  C1150    1.0000 0.73849  0.83611  0.41711  Biso   1.000  C
  H942     1.0000 0.75023  0.83627  0.40347  Biso   1.000  H
  C1151    1.0000 0.76178  0.85037  0.43618  Biso   1.000  C
  H943     1.0000 0.78923  0.86087  0.43537  Biso   1.000  H
  C1152    1.0000 0.74320  0.84872  0.45678  Biso   1.000  C
  H944     1.0000 0.75823  0.85707  0.46987  Biso   1.000  H
  C1153    1.0000 0.70296  0.83478  0.45754  Biso   1.000  C
  C1154    1.0000 0.68012  0.82037  0.43793  Biso   1.000  C
  H945     1.0000 0.65273  0.80997  0.43867  Biso   1.000  H
  C1155    1.0000 0.68203  0.83266  0.47908  Biso   1.000  C
  O307     1.0000 0.54412  0.54128  0.28620  Biso   1.000  O
  O308     1.0000 0.51457  0.55843  0.31032  Biso   1.000  O
  O309     1.0000 0.60818  0.70906  0.31618  Biso   1.000  O
  O310     1.0000 0.67798  0.80877  0.39836  Biso   1.000  O
  O311     1.0000 0.64561  0.82060  0.47810  Biso   1.000  O
  O312     1.0000 0.70286  0.84379  0.49646  Biso   1.000  O
  O313     1.0000 0.58839  0.85746  0.32988  Biso   1.000  O
  O314     1.0000 0.49862  0.91552  0.32551  Biso   1.000  O
  O315     1.0000 0.53678  0.97418  0.30986  Biso   1.000  O
  Zn35     1.0000 0.51143  0.00927  0.30567  Biso   1.000  Zn
  C1156    1.0000 0.23476  0.87480  0.53670  Biso   1.000  C
  C1157    1.0000 0.27675  0.90504  0.54016  Biso   1.000  C
  C1158    1.0000 0.28624  0.93746  0.55469  Biso   1.000  C
  H946     1.0000 0.26653  0.93727  0.56367  Biso   1.000  H
  C1159    1.0000 0.32404  0.96886  0.55560  Biso   1.000  C
  H947     1.0000 0.33003  0.99017  0.56517  Biso   1.000  H
  C1160    1.0000 0.35257  0.96917  0.54284  Biso   1.000  C
  H948     1.0000 0.37833  0.99087  0.54357  Biso   1.000  H
  C1161    1.0000 0.34437  0.93731  0.52841  Biso   1.000  C
  C1162    1.0000 0.30600  0.90504  0.52713  Biso   1.000  C
  H949     1.0000 0.30013  0.88377  0.51757  Biso   1.000  H
  C1163    1.0000 0.37118  0.91075  0.50174  Biso   1.000  C
  H950     1.0000 0.36323  0.88607  0.50967  Biso   1.000  H
  H951     1.0000 0.35113  0.90597  0.49047  Biso   1.000  H
  C1164    1.0000 0.41223  0.92634  0.49072  Biso   1.000  C
  C1165    1.0000 0.44343  0.92821  0.50320  Biso   1.000  C
  C1166    1.0000 0.48102  0.94672  0.49371  Biso   1.000  C
  C1167    1.0000 0.48683  0.95915  0.47173  Biso   1.000  C
  C1168    1.0000 0.45504  0.95577  0.45935  Biso   1.000  C
  C1169    1.0000 0.41671  0.94071  0.46947  Biso   1.000  C
  C1170    1.0000 0.38337  0.94079  0.45625  Biso   1.000  C
  H952     1.0000 0.36763  0.94707  0.46607  Biso   1.000  H
  H953     1.0000 0.39443  0.96037  0.44447  Biso   1.000  H
  H954     1.0000 0.36683  0.91497  0.44977  Biso   1.000  H
  C1171    1.0000 0.43732  0.91039  0.52636  Biso   1.000  C
  H955     1.0000 0.41453  0.88407  0.52627  Biso   1.000  H
  H956     1.0000 0.46053  0.90907  0.53067  Biso   1.000  H
  H957     1.0000 0.43303  0.92667  0.53687  Biso   1.000  H
  C1172    1.0000 0.52777  0.97785  0.46153  Biso   1.000  C
  H958     1.0000 0.54373  0.96967  0.46977  Biso   1.000  H
  H959     1.0000 0.52573  0.96947  0.44617  Biso   1.000  H
  H960     1.0000 0.54003  0.00637  0.46217  Biso   1.000  H
  C1173    1.0000 0.51643  0.95389  0.50743  Biso   1.000  C
  H961     1.0000 0.51123  0.95517  0.52327  Biso   1.000  H
  H962     1.0000 0.53943  0.97897  0.50317  Biso   1.000  H
  C1174    1.0000 0.55742  0.92530  0.51390  Biso   1.000  C
  C1175    1.0000 0.58279  0.95768  0.52719  Biso   1.000  C
  H963     1.0000 0.57743  0.97827  0.52947  Biso   1.000  H
  C1176    1.0000 0.61609  0.95923  0.53699  Biso   1.000  C
  H964     1.0000 0.63303  0.98087  0.54587  Biso   1.000  H
  C1177    1.0000 0.62402  0.92841  0.53352  Biso   1.000  C
  H965     1.0000 0.64633  0.92947  0.54007  Biso   1.000  H
  C1178    1.0000 0.59865  0.89603  0.52023  Biso   1.000  C
  C1179    1.0000 0.56535  0.89448  0.51043  Biso   1.000  C
  H966     1.0000 0.54833  0.87277  0.50157  Biso   1.000  H
  C1180    1.0000 0.60692  0.86321  0.51619  Biso   1.000  C
  C1181    1.0000 0.46128  0.97042  0.43543  Biso   1.000  C
  H967     1.0000 0.43633  0.95657  0.42727  Biso   1.000  H
  H968     1.0000 0.48023  0.96477  0.42807  Biso   1.000  H
  C1182    1.0000 0.48803  0.03046  0.41518  Biso   1.000  C
  C1183    1.0000 0.50277  0.07183  0.41623  Biso   1.000  C
  H969     1.0000 0.50293  0.08357  0.42987  Biso   1.000  H
  C1184    1.0000 0.51703  0.09512  0.39716  Biso   1.000  C
  H970     1.0000 0.52753  0.12257  0.39797  Biso   1.000  H
  C1185    1.0000 0.51538  0.07654  0.37656  Biso   1.000  C
  H971     1.0000 0.52373  0.09157  0.36347  Biso   1.000  H
  C1186    1.0000 0.50144  0.03630  0.37580  Biso   1.000  C
  C1187    1.0000 0.48703  0.01346  0.39541  Biso   1.000  C
  H972     1.0000 0.47663  0.98607  0.39467  Biso   1.000  H
  C1188    1.0000 0.49932  0.01537  0.35426  Biso   1.000  C
  O316     1.0000 0.20794  0.87746  0.54714  Biso   1.000  O
  O317     1.0000 0.22509  0.84791  0.52302  Biso   1.000  O
  O318     1.0000 0.37572  0.94152  0.51716  Biso   1.000  O
  O319     1.0000 0.47543  0.01132  0.43498  Biso   1.000  O
  O320     1.0000 0.48726  0.97895  0.35524  Biso   1.000  O
  O321     1.0000 0.51045  0.03620  0.33688  Biso   1.000  O
  O322     1.0000 0.52412  0.92173  0.50346  Biso   1.000  O
  O323     1.0000 0.58218  0.83196  0.50783  Biso   1.000  O
  O324     1.0000 0.64084  0.87012  0.52348  Biso   1.000  O
  Zn36     1.0000 0.67593  0.84476  0.52766  Biso   1.000  Zn
