data_image0
_cell_length_a       33.1272
_cell_length_b       65.1158
_cell_length_c       19.1804
_cell_angle_alpha    90
_cell_angle_beta     90
_cell_angle_gamma    90

_symmetry_space_group_name_H-M    "P 1"
_symmetry_int_tables_number       1

loop_
  _symmetry_equiv_pos_as_xyz
  'x, y, z'

loop_
  _atom_site_label
  _atom_site_occupancy
  _atom_site_fract_x
  _atom_site_fract_y
  _atom_site_fract_z
  _atom_site_thermal_displace_type
  _atom_site_B_iso_or_equiv
  _atom_site_type_symbol
  Zn1      1.0000 0.50213  0.05793  0.31253  Biso   1.000  Zn
  Zn2      1.0000 0.26950  0.99077  0.00879  Biso   1.000  Zn
  Zn3      1.0000 0.24480  0.04157  0.98625  Biso   1.000  Zn
  S1       1.0000 0.39099  0.02133  0.12970  Biso   1.000  S
  S2       1.0000 0.12930  0.02666  0.12400  Biso   1.000  S
  S3       1.0000 0.62920  0.03565  0.13240  Biso   1.000  S
  S4       1.0000 0.51530  0.99506  0.47200  Biso   1.000  S
  S5       1.0000 0.27110  0.99370  0.76800  Biso   1.000  S
  O1       1.0000 0.31530  0.00870  0.04830  Biso   1.000  O
  O2       1.0000 0.29260  0.04179  0.04030  Biso   1.000  O
  O3       1.0000 0.54760  0.06144  0.24880  Biso   1.000  O
  O4       1.0000 0.55970  0.02846  0.22030  Biso   1.000  O
  O5       1.0000 0.45590  0.05427  0.24920  Biso   1.000  O
  O6       1.0000 0.47030  0.02358  0.20610  Biso   1.000  O
  O7       1.0000 0.46960  0.04210  0.40690  Biso   1.000  O
  O8       1.0000 0.52120  0.02981  0.35500  Biso   1.000  O
  O9       1.0000 0.26920  0.01042  0.92060  Biso   1.000  O
  O10      1.0000 0.22570  0.03260  0.88540  Biso   1.000  O
  O11      1.0000 0.22340  0.00292  0.06230  Biso   1.000  O
  O12      1.0000 0.19720  0.03206  0.03630  Biso   1.000  O
  C1       1.0000 0.56650  0.04749  0.21730  Biso   1.000  C
  C2       1.0000 0.19530  0.01492  0.06350  Biso   1.000  C
  C3       1.0000 0.31800  0.02750  0.06050  Biso   1.000  C
  C4       1.0000 0.35160  0.03520  0.10300  Biso   1.000  C
  C5       1.0000 0.59730  0.05373  0.16550  Biso   1.000  C
  C6       1.0000 0.44900  0.04000  0.21230  Biso   1.000  C
  C7       1.0000 0.15720  0.00963  0.09540  Biso   1.000  C
  C8       1.0000 0.35690  0.05460  0.12590  Biso   1.000  C
  C9       1.0000 0.41190  0.04160  0.17200  Biso   1.000  C
  C10      1.0000 0.14480  0.99030  0.10490  Biso   1.000  C
  C11      1.0000 0.61020  0.07330  0.15020  Biso   1.000  C
  C12      1.0000 0.38740  0.05850  0.16630  Biso   1.000  C
  C13      1.0000 0.24840  0.01700  0.87400  Biso   1.000  C
  C14      1.0000 0.24390  0.01400  0.80140  Biso   1.000  C
  C15      1.0000 0.25240  0.00180  0.81210  Biso   1.000  C
  C16      1.0000 0.49580  0.02960  0.40340  Biso   1.000  C
  C17      1.0000 0.54880  0.00070  0.45850  Biso   1.000  C
  C18      1.0000 0.44870  0.01460  0.49650  Biso   1.000  C
  C19      1.0000 0.51520  0.01390  0.46080  Biso   1.000  C
  C20      1.0000 0.48210  0.01300  0.45330  Biso   1.000  C
  C21      1.0000 0.22040  0.02380  0.76020  Biso   1.000  C
  C22      1.0000 0.27830  0.98480  0.81460  Biso   1.000  C
  Zn4      1.0000 0.00213  0.05793  0.81253  Biso   1.000  Zn
  Zn5      1.0000 0.76950  0.99077  0.50879  Biso   1.000  Zn
  Zn6      1.0000 0.74480  0.04157  0.48625  Biso   1.000  Zn
  S6       1.0000 0.89099  0.02133  0.62970  Biso   1.000  S
  S7       1.0000 0.62930  0.02666  0.62400  Biso   1.000  S
  S8       1.0000 0.12920  0.03565  0.63240  Biso   1.000  S
  S9       1.0000 0.01530  0.99506  0.97200  Biso   1.000  S
  S10      1.0000 0.77110  0.99370  0.26800  Biso   1.000  S
  O13      1.0000 0.81530  0.00870  0.54830  Biso   1.000  O
  O14      1.0000 0.79260  0.04179  0.54030  Biso   1.000  O
  O15      1.0000 0.04760  0.06144  0.74880  Biso   1.000  O
  O16      1.0000 0.05970  0.02846  0.72030  Biso   1.000  O
  O17      1.0000 0.95590  0.05427  0.74920  Biso   1.000  O
  O18      1.0000 0.97030  0.02358  0.70610  Biso   1.000  O
  O19      1.0000 0.96960  0.04210  0.90690  Biso   1.000  O
  O20      1.0000 0.02120  0.02981  0.85500  Biso   1.000  O
  O21      1.0000 0.76920  0.01042  0.42060  Biso   1.000  O
  O22      1.0000 0.72570  0.03260  0.38540  Biso   1.000  O
  O23      1.0000 0.72340  0.00292  0.56230  Biso   1.000  O
  O24      1.0000 0.69720  0.03206  0.53630  Biso   1.000  O
  C23      1.0000 0.06650  0.04749  0.71730  Biso   1.000  C
  C24      1.0000 0.69530  0.01492  0.56350  Biso   1.000  C
  C25      1.0000 0.81800  0.02750  0.56050  Biso   1.000  C
  C26      1.0000 0.85160  0.03520  0.60300  Biso   1.000  C
  C27      1.0000 0.09730  0.05373  0.66550  Biso   1.000  C
  C28      1.0000 0.94900  0.04000  0.71230  Biso   1.000  C
  C29      1.0000 0.65720  0.00963  0.59540  Biso   1.000  C
  C30      1.0000 0.85690  0.05460  0.62590  Biso   1.000  C
  C31      1.0000 0.91190  0.04160  0.67200  Biso   1.000  C
  C32      1.0000 0.64480  0.99030  0.60490  Biso   1.000  C
  C33      1.0000 0.11020  0.07330  0.65020  Biso   1.000  C
  C34      1.0000 0.88740  0.05850  0.66630  Biso   1.000  C
  C35      1.0000 0.74840  0.01700  0.37400  Biso   1.000  C
  C36      1.0000 0.74390  0.01400  0.30140  Biso   1.000  C
  C37      1.0000 0.75240  0.00180  0.31210  Biso   1.000  C
  C38      1.0000 0.99580  0.02960  0.90340  Biso   1.000  C
  C39      1.0000 0.04880  0.00070  0.95850  Biso   1.000  C
  C40      1.0000 0.94870  0.01460  0.99650  Biso   1.000  C
  C41      1.0000 0.01520  0.01390  0.96080  Biso   1.000  C
  C42      1.0000 0.98210  0.01300  0.95330  Biso   1.000  C
  C43      1.0000 0.72040  0.02380  0.26020  Biso   1.000  C
  C44      1.0000 0.77830  0.98480  0.31460  Biso   1.000  C
  Zn7      1.0000 0.24787  0.05793  0.43747  Biso   1.000  Zn
  Zn8      1.0000 0.48050  0.99077  0.74121  Biso   1.000  Zn
  Zn9      1.0000 0.50520  0.04157  0.76375  Biso   1.000  Zn
  S11      1.0000 0.35901  0.02133  0.62030  Biso   1.000  S
  S12      1.0000 0.62070  0.02666  0.62600  Biso   1.000  S
  S13      1.0000 0.12080  0.03565  0.61760  Biso   1.000  S
  S14      1.0000 0.23470  0.99506  0.27800  Biso   1.000  S
  S15      1.0000 0.47890  0.99370  0.98200  Biso   1.000  S
  O25      1.0000 0.43470  0.00870  0.70170  Biso   1.000  O
  O26      1.0000 0.45740  0.04179  0.70970  Biso   1.000  O
  O27      1.0000 0.20240  0.06144  0.50120  Biso   1.000  O
  O28      1.0000 0.19030  0.02846  0.52970  Biso   1.000  O
  O29      1.0000 0.29410  0.05427  0.50080  Biso   1.000  O
  O30      1.0000 0.27970  0.02358  0.54390  Biso   1.000  O
  O31      1.0000 0.28040  0.04210  0.34310  Biso   1.000  O
  O32      1.0000 0.22880  0.02981  0.39500  Biso   1.000  O
  O33      1.0000 0.48080  0.01042  0.82940  Biso   1.000  O
  O34      1.0000 0.52430  0.03260  0.86460  Biso   1.000  O
  O35      1.0000 0.52660  0.00292  0.68770  Biso   1.000  O
  O36      1.0000 0.55280  0.03206  0.71370  Biso   1.000  O
  C45      1.0000 0.18350  0.04749  0.53270  Biso   1.000  C
  C46      1.0000 0.55470  0.01492  0.68650  Biso   1.000  C
  C47      1.0000 0.43200  0.02750  0.68950  Biso   1.000  C
  C48      1.0000 0.39840  0.03520  0.64700  Biso   1.000  C
  C49      1.0000 0.15270  0.05373  0.58450  Biso   1.000  C
  C50      1.0000 0.30100  0.04000  0.53770  Biso   1.000  C
  C51      1.0000 0.59280  0.00963  0.65460  Biso   1.000  C
  C52      1.0000 0.39310  0.05460  0.62410  Biso   1.000  C
  C53      1.0000 0.33810  0.04160  0.57800  Biso   1.000  C
  C54      1.0000 0.60520  0.99030  0.64510  Biso   1.000  C
  C55      1.0000 0.13980  0.07330  0.59980  Biso   1.000  C
  C56      1.0000 0.36260  0.05850  0.58370  Biso   1.000  C
  C57      1.0000 0.50160  0.01700  0.87600  Biso   1.000  C
  C58      1.0000 0.50610  0.01400  0.94860  Biso   1.000  C
  C59      1.0000 0.49760  0.00180  0.93790  Biso   1.000  C
  C60      1.0000 0.25420  0.02960  0.34660  Biso   1.000  C
  C61      1.0000 0.20120  0.00070  0.29150  Biso   1.000  C
  C62      1.0000 0.30130  0.01460  0.25350  Biso   1.000  C
  C63      1.0000 0.23480  0.01390  0.28920  Biso   1.000  C
  C64      1.0000 0.26790  0.01300  0.29670  Biso   1.000  C
  C65      1.0000 0.52960  0.02380  0.98980  Biso   1.000  C
  C66      1.0000 0.47170  0.98480  0.93540  Biso   1.000  C
  Zn10     1.0000 0.74787  0.05793  0.93747  Biso   1.000  Zn
  Zn11     1.0000 0.98050  0.99077  0.24121  Biso   1.000  Zn
  Zn12     1.0000 0.00520  0.04157  0.26375  Biso   1.000  Zn
  S16      1.0000 0.85901  0.02133  0.12030  Biso   1.000  S
  S17      1.0000 0.12070  0.02666  0.12600  Biso   1.000  S
  S18      1.0000 0.62080  0.03565  0.11760  Biso   1.000  S
  S19      1.0000 0.73470  0.99506  0.77800  Biso   1.000  S
  S20      1.0000 0.97890  0.99370  0.48200  Biso   1.000  S
  O37      1.0000 0.93470  0.00870  0.20170  Biso   1.000  O
  O38      1.0000 0.95740  0.04179  0.20970  Biso   1.000  O
  O39      1.0000 0.70240  0.06144  0.00120  Biso   1.000  O
  O40      1.0000 0.69030  0.02846  0.02970  Biso   1.000  O
  O41      1.0000 0.79410  0.05427  0.00080  Biso   1.000  O
  O42      1.0000 0.77970  0.02358  0.04390  Biso   1.000  O
  O43      1.0000 0.78040  0.04210  0.84310  Biso   1.000  O
  O44      1.0000 0.72880  0.02981  0.89500  Biso   1.000  O
  O45      1.0000 0.98080  0.01042  0.32940  Biso   1.000  O
  O46      1.0000 0.02430  0.03260  0.36460  Biso   1.000  O
  O47      1.0000 0.02660  0.00292  0.18770  Biso   1.000  O
  O48      1.0000 0.05280  0.03206  0.21370  Biso   1.000  O
  C67      1.0000 0.68350  0.04749  0.03270  Biso   1.000  C
  C68      1.0000 0.05470  0.01492  0.18650  Biso   1.000  C
  C69      1.0000 0.93200  0.02750  0.18950  Biso   1.000  C
  C70      1.0000 0.89840  0.03520  0.14700  Biso   1.000  C
  C71      1.0000 0.65270  0.05373  0.08450  Biso   1.000  C
  C72      1.0000 0.80100  0.04000  0.03770  Biso   1.000  C
  C73      1.0000 0.09280  0.00963  0.15460  Biso   1.000  C
  C74      1.0000 0.89310  0.05460  0.12410  Biso   1.000  C
  C75      1.0000 0.83810  0.04160  0.07800  Biso   1.000  C
  C76      1.0000 0.10520  0.99030  0.14510  Biso   1.000  C
  C77      1.0000 0.63980  0.07330  0.09980  Biso   1.000  C
  C78      1.0000 0.86260  0.05850  0.08370  Biso   1.000  C
  C79      1.0000 0.00160  0.01700  0.37600  Biso   1.000  C
  C80      1.0000 0.00610  0.01400  0.44860  Biso   1.000  C
  C81      1.0000 0.99760  0.00180  0.43790  Biso   1.000  C
  C82      1.0000 0.75420  0.02960  0.84660  Biso   1.000  C
  C83      1.0000 0.70120  0.00070  0.79150  Biso   1.000  C
  C84      1.0000 0.80130  0.01460  0.75350  Biso   1.000  C
  C85      1.0000 0.73480  0.01390  0.78920  Biso   1.000  C
  C86      1.0000 0.76790  0.01300  0.79670  Biso   1.000  C
  C87      1.0000 0.02960  0.02380  0.48980  Biso   1.000  C
  C88      1.0000 0.97170  0.98480  0.43540  Biso   1.000  C
  Zn13     1.0000 0.49787  0.94207  0.68747  Biso   1.000  Zn
  Zn14     1.0000 0.73050  0.00923  0.99121  Biso   1.000  Zn
  Zn15     1.0000 0.75520  0.95843  0.01375  Biso   1.000  Zn
  S21      1.0000 0.60901  0.97867  0.87030  Biso   1.000  S
  S22      1.0000 0.87070  0.97334  0.87600  Biso   1.000  S
  S23      1.0000 0.37080  0.96435  0.86760  Biso   1.000  S
  S24      1.0000 0.48470  0.00494  0.52800  Biso   1.000  S
  S25      1.0000 0.72890  0.00630  0.23200  Biso   1.000  S
  O49      1.0000 0.68470  0.99130  0.95170  Biso   1.000  O
  O50      1.0000 0.70740  0.95821  0.95970  Biso   1.000  O
  O51      1.0000 0.45240  0.93856  0.75120  Biso   1.000  O
  O52      1.0000 0.44030  0.97154  0.77970  Biso   1.000  O
  O53      1.0000 0.54410  0.94573  0.75080  Biso   1.000  O
  O54      1.0000 0.52970  0.97642  0.79390  Biso   1.000  O
  O55      1.0000 0.53040  0.95790  0.59310  Biso   1.000  O
  O56      1.0000 0.47880  0.97019  0.64500  Biso   1.000  O
  O57      1.0000 0.73080  0.98958  0.07940  Biso   1.000  O
  O58      1.0000 0.77430  0.96740  0.11460  Biso   1.000  O
  O59      1.0000 0.77660  0.99708  0.93770  Biso   1.000  O
  O60      1.0000 0.80280  0.96794  0.96370  Biso   1.000  O
  C89      1.0000 0.43350  0.95251  0.78270  Biso   1.000  C
  C90      1.0000 0.80470  0.98508  0.93650  Biso   1.000  C
  C91      1.0000 0.68200  0.97250  0.93950  Biso   1.000  C
  C92      1.0000 0.64840  0.96480  0.89700  Biso   1.000  C
  C93      1.0000 0.40270  0.94627  0.83450  Biso   1.000  C
  C94      1.0000 0.55100  0.96000  0.78770  Biso   1.000  C
  C95      1.0000 0.84280  0.99037  0.90460  Biso   1.000  C
  C96      1.0000 0.64310  0.94540  0.87410  Biso   1.000  C
  C97      1.0000 0.58810  0.95840  0.82800  Biso   1.000  C
  C98      1.0000 0.85520  0.00970  0.89510  Biso   1.000  C
  C99      1.0000 0.38980  0.92670  0.84980  Biso   1.000  C
  C100     1.0000 0.61260  0.94150  0.83370  Biso   1.000  C
  C101     1.0000 0.75160  0.98300  0.12600  Biso   1.000  C
  C102     1.0000 0.75610  0.98600  0.19860  Biso   1.000  C
  C103     1.0000 0.74760  0.99820  0.18790  Biso   1.000  C
  C104     1.0000 0.50420  0.97040  0.59660  Biso   1.000  C
  C105     1.0000 0.45120  0.99930  0.54150  Biso   1.000  C
  C106     1.0000 0.55130  0.98540  0.50350  Biso   1.000  C
  C107     1.0000 0.48480  0.98610  0.53920  Biso   1.000  C
  C108     1.0000 0.51790  0.98700  0.54670  Biso   1.000  C
  C109     1.0000 0.77960  0.97620  0.23980  Biso   1.000  C
  C110     1.0000 0.72170  0.01520  0.18540  Biso   1.000  C
  Zn16     1.0000 0.99787  0.94207  0.18747  Biso   1.000  Zn
  Zn17     1.0000 0.23050  0.00923  0.49121  Biso   1.000  Zn
  Zn18     1.0000 0.25520  0.95843  0.51375  Biso   1.000  Zn
  S26      1.0000 0.10901  0.97867  0.37030  Biso   1.000  S
  S27      1.0000 0.37070  0.97334  0.37600  Biso   1.000  S
  S28      1.0000 0.87080  0.96435  0.36760  Biso   1.000  S
  S29      1.0000 0.98470  0.00494  0.02800  Biso   1.000  S
  S30      1.0000 0.22890  0.00630  0.73200  Biso   1.000  S
  O61      1.0000 0.18470  0.99130  0.45170  Biso   1.000  O
  O62      1.0000 0.20740  0.95821  0.45970  Biso   1.000  O
  O63      1.0000 0.95240  0.93856  0.25120  Biso   1.000  O
  O64      1.0000 0.94030  0.97154  0.27970  Biso   1.000  O
  O65      1.0000 0.04410  0.94573  0.25080  Biso   1.000  O
  O66      1.0000 0.02970  0.97642  0.29390  Biso   1.000  O
  O67      1.0000 0.03040  0.95790  0.09310  Biso   1.000  O
  O68      1.0000 0.97880  0.97019  0.14500  Biso   1.000  O
  O69      1.0000 0.23080  0.98958  0.57940  Biso   1.000  O
  O70      1.0000 0.27430  0.96740  0.61460  Biso   1.000  O
  O71      1.0000 0.27660  0.99708  0.43770  Biso   1.000  O
  O72      1.0000 0.30280  0.96794  0.46370  Biso   1.000  O
  C111     1.0000 0.93350  0.95251  0.28270  Biso   1.000  C
  C112     1.0000 0.30470  0.98508  0.43650  Biso   1.000  C
  C113     1.0000 0.18200  0.97250  0.43950  Biso   1.000  C
  C114     1.0000 0.14840  0.96480  0.39700  Biso   1.000  C
  C115     1.0000 0.90270  0.94627  0.33450  Biso   1.000  C
  C116     1.0000 0.05100  0.96000  0.28770  Biso   1.000  C
  C117     1.0000 0.34280  0.99037  0.40460  Biso   1.000  C
  C118     1.0000 0.14310  0.94540  0.37410  Biso   1.000  C
  C119     1.0000 0.08810  0.95840  0.32800  Biso   1.000  C
  C120     1.0000 0.35520  0.00970  0.39510  Biso   1.000  C
  C121     1.0000 0.88980  0.92670  0.34980  Biso   1.000  C
  C122     1.0000 0.11260  0.94150  0.33370  Biso   1.000  C
  C123     1.0000 0.25160  0.98300  0.62600  Biso   1.000  C
  C124     1.0000 0.25610  0.98600  0.69860  Biso   1.000  C
  C125     1.0000 0.24760  0.99820  0.68790  Biso   1.000  C
  C126     1.0000 0.00420  0.97040  0.09660  Biso   1.000  C
  C127     1.0000 0.95120  0.99930  0.04150  Biso   1.000  C
  C128     1.0000 0.05130  0.98540  0.00350  Biso   1.000  C
  C129     1.0000 0.98480  0.98610  0.03920  Biso   1.000  C
  C130     1.0000 0.01790  0.98700  0.04670  Biso   1.000  C
  C131     1.0000 0.27960  0.97620  0.73980  Biso   1.000  C
  C132     1.0000 0.22170  0.01520  0.68540  Biso   1.000  C
  Zn19     1.0000 0.75213  0.94207  0.56253  Biso   1.000  Zn
  Zn20     1.0000 0.51950  0.00923  0.25879  Biso   1.000  Zn
  Zn21     1.0000 0.49480  0.95843  0.23625  Biso   1.000  Zn
  S31      1.0000 0.64099  0.97867  0.37970  Biso   1.000  S
  S32      1.0000 0.37930  0.97334  0.37400  Biso   1.000  S
  S33      1.0000 0.87920  0.96435  0.38240  Biso   1.000  S
  S34      1.0000 0.76530  0.00494  0.72200  Biso   1.000  S
  S35      1.0000 0.52110  0.00630  0.01800  Biso   1.000  S
  O73      1.0000 0.56530  0.99130  0.29830  Biso   1.000  O
  O74      1.0000 0.54260  0.95821  0.29030  Biso   1.000  O
  O75      1.0000 0.79760  0.93856  0.49880  Biso   1.000  O
  O76      1.0000 0.80970  0.97154  0.47030  Biso   1.000  O
  O77      1.0000 0.70590  0.94573  0.49920  Biso   1.000  O
  O78      1.0000 0.72030  0.97642  0.45610  Biso   1.000  O
  O79      1.0000 0.71960  0.95790  0.65690  Biso   1.000  O
  O80      1.0000 0.77120  0.97019  0.60500  Biso   1.000  O
  O81      1.0000 0.51920  0.98958  0.17060  Biso   1.000  O
  O82      1.0000 0.47570  0.96740  0.13540  Biso   1.000  O
  O83      1.0000 0.47340  0.99708  0.31230  Biso   1.000  O
  O84      1.0000 0.44720  0.96794  0.28630  Biso   1.000  O
  C133     1.0000 0.81650  0.95251  0.46730  Biso   1.000  C
  C134     1.0000 0.44530  0.98508  0.31350  Biso   1.000  C
  C135     1.0000 0.56800  0.97250  0.31050  Biso   1.000  C
  C136     1.0000 0.60160  0.96480  0.35300  Biso   1.000  C
  C137     1.0000 0.84730  0.94627  0.41550  Biso   1.000  C
  C138     1.0000 0.69900  0.96000  0.46230  Biso   1.000  C
  C139     1.0000 0.40720  0.99037  0.34540  Biso   1.000  C
  C140     1.0000 0.60690  0.94540  0.37590  Biso   1.000  C
  C141     1.0000 0.66190  0.95840  0.42200  Biso   1.000  C
  C142     1.0000 0.39480  0.00970  0.35490  Biso   1.000  C
  C143     1.0000 0.86020  0.92670  0.40020  Biso   1.000  C
  C144     1.0000 0.63740  0.94150  0.41630  Biso   1.000  C
  C145     1.0000 0.49840  0.98300  0.12400  Biso   1.000  C
  C146     1.0000 0.49390  0.98600  0.05140  Biso   1.000  C
  C147     1.0000 0.50240  0.99820  0.06210  Biso   1.000  C
  C148     1.0000 0.74580  0.97040  0.65340  Biso   1.000  C
  C149     1.0000 0.79880  0.99930  0.70850  Biso   1.000  C
  C150     1.0000 0.69870  0.98540  0.74650  Biso   1.000  C
  C151     1.0000 0.76520  0.98610  0.71080  Biso   1.000  C
  C152     1.0000 0.73210  0.98700  0.70330  Biso   1.000  C
  C153     1.0000 0.47040  0.97620  0.01020  Biso   1.000  C
  C154     1.0000 0.52830  0.01520  0.06460  Biso   1.000  C
  Zn22     1.0000 0.25213  0.94207  0.06253  Biso   1.000  Zn
  Zn23     1.0000 0.01950  0.00923  0.75879  Biso   1.000  Zn
  Zn24     1.0000 0.99480  0.95843  0.73625  Biso   1.000  Zn
  S36      1.0000 0.14099  0.97867  0.87970  Biso   1.000  S
  S37      1.0000 0.87930  0.97334  0.87400  Biso   1.000  S
  S38      1.0000 0.37920  0.96435  0.88240  Biso   1.000  S
  S39      1.0000 0.26530  0.00494  0.22200  Biso   1.000  S
  S40      1.0000 0.02110  0.00630  0.51800  Biso   1.000  S
  O85      1.0000 0.06530  0.99130  0.79830  Biso   1.000  O
  O86      1.0000 0.04260  0.95821  0.79030  Biso   1.000  O
  O87      1.0000 0.29760  0.93856  0.99880  Biso   1.000  O
  O88      1.0000 0.30970  0.97154  0.97030  Biso   1.000  O
  O89      1.0000 0.20590  0.94573  0.99920  Biso   1.000  O
  O90      1.0000 0.22030  0.97642  0.95610  Biso   1.000  O
  O91      1.0000 0.21960  0.95790  0.15690  Biso   1.000  O
  O92      1.0000 0.27120  0.97019  0.10500  Biso   1.000  O
  O93      1.0000 0.01920  0.98958  0.67060  Biso   1.000  O
  O94      1.0000 0.97570  0.96740  0.63540  Biso   1.000  O
  O95      1.0000 0.97340  0.99708  0.81230  Biso   1.000  O
  O96      1.0000 0.94720  0.96794  0.78630  Biso   1.000  O
  C155     1.0000 0.31650  0.95251  0.96730  Biso   1.000  C
  C156     1.0000 0.94530  0.98508  0.81350  Biso   1.000  C
  C157     1.0000 0.06800  0.97250  0.81050  Biso   1.000  C
  C158     1.0000 0.10160  0.96480  0.85300  Biso   1.000  C
  C159     1.0000 0.34730  0.94627  0.91550  Biso   1.000  C
  C160     1.0000 0.19900  0.96000  0.96230  Biso   1.000  C
  C161     1.0000 0.90720  0.99037  0.84540  Biso   1.000  C
  C162     1.0000 0.10690  0.94540  0.87590  Biso   1.000  C
  C163     1.0000 0.16190  0.95840  0.92200  Biso   1.000  C
  C164     1.0000 0.89480  0.00970  0.85490  Biso   1.000  C
  C165     1.0000 0.36020  0.92670  0.90020  Biso   1.000  C
  C166     1.0000 0.13740  0.94150  0.91630  Biso   1.000  C
  C167     1.0000 0.99840  0.98300  0.62400  Biso   1.000  C
  C168     1.0000 0.99390  0.98600  0.55140  Biso   1.000  C
  C169     1.0000 0.00240  0.99820  0.56210  Biso   1.000  C
  C170     1.0000 0.24580  0.97040  0.15340  Biso   1.000  C
  C171     1.0000 0.29880  0.99930  0.20850  Biso   1.000  C
  C172     1.0000 0.19870  0.98540  0.24650  Biso   1.000  C
  C173     1.0000 0.26520  0.98610  0.21080  Biso   1.000  C
  C174     1.0000 0.23210  0.98700  0.20330  Biso   1.000  C
  C175     1.0000 0.97040  0.97620  0.51020  Biso   1.000  C
  C176     1.0000 0.02830  0.01520  0.56460  Biso   1.000  C
  Zn25     1.0000 0.24787  0.19207  0.81253  Biso   1.000  Zn
  Zn26     1.0000 0.48050  0.25923  0.50879  Biso   1.000  Zn
  Zn27     1.0000 0.50520  0.20843  0.48625  Biso   1.000  Zn
  S41      1.0000 0.35901  0.22867  0.62970  Biso   1.000  S
  S42      1.0000 0.62070  0.22334  0.62400  Biso   1.000  S
  S43      1.0000 0.12080  0.21435  0.63240  Biso   1.000  S
  S44      1.0000 0.23470  0.25494  0.97200  Biso   1.000  S
  S45      1.0000 0.47890  0.25630  0.26800  Biso   1.000  S
  O97      1.0000 0.43470  0.24130  0.54830  Biso   1.000  O
  O98      1.0000 0.45740  0.20821  0.54030  Biso   1.000  O
  O99      1.0000 0.20240  0.18856  0.74880  Biso   1.000  O
  O100     1.0000 0.19030  0.22154  0.72030  Biso   1.000  O
  O101     1.0000 0.29410  0.19573  0.74920  Biso   1.000  O
  O102     1.0000 0.27970  0.22642  0.70610  Biso   1.000  O
  O103     1.0000 0.28040  0.20790  0.90690  Biso   1.000  O
  O104     1.0000 0.22880  0.22019  0.85500  Biso   1.000  O
  O105     1.0000 0.48080  0.23958  0.42060  Biso   1.000  O
  O106     1.0000 0.52430  0.21740  0.38540  Biso   1.000  O
  O107     1.0000 0.52660  0.24708  0.56230  Biso   1.000  O
  O108     1.0000 0.55280  0.21794  0.53630  Biso   1.000  O
  C177     1.0000 0.18350  0.20251  0.71730  Biso   1.000  C
  C178     1.0000 0.55470  0.23508  0.56350  Biso   1.000  C
  C179     1.0000 0.43200  0.22250  0.56050  Biso   1.000  C
  C180     1.0000 0.39840  0.21480  0.60300  Biso   1.000  C
  C181     1.0000 0.15270  0.19627  0.66550  Biso   1.000  C
  C182     1.0000 0.30100  0.21000  0.71230  Biso   1.000  C
  C183     1.0000 0.59280  0.24037  0.59540  Biso   1.000  C
  C184     1.0000 0.39310  0.19540  0.62590  Biso   1.000  C
  C185     1.0000 0.33810  0.20840  0.67200  Biso   1.000  C
  C186     1.0000 0.60520  0.25970  0.60490  Biso   1.000  C
  C187     1.0000 0.13980  0.17670  0.65020  Biso   1.000  C
  C188     1.0000 0.36260  0.19150  0.66630  Biso   1.000  C
  C189     1.0000 0.50160  0.23300  0.37400  Biso   1.000  C
  C190     1.0000 0.50610  0.23600  0.30140  Biso   1.000  C
  C191     1.0000 0.49760  0.24820  0.31210  Biso   1.000  C
  C192     1.0000 0.25420  0.22040  0.90340  Biso   1.000  C
  C193     1.0000 0.20120  0.24930  0.95850  Biso   1.000  C
  C194     1.0000 0.30130  0.23540  0.99650  Biso   1.000  C
  C195     1.0000 0.23480  0.23610  0.96080  Biso   1.000  C
  C196     1.0000 0.26790  0.23700  0.95330  Biso   1.000  C
  C197     1.0000 0.52960  0.22620  0.26020  Biso   1.000  C
  C198     1.0000 0.47170  0.26520  0.31460  Biso   1.000  C
  Zn28     1.0000 0.74787  0.19207  0.31253  Biso   1.000  Zn
  Zn29     1.0000 0.98050  0.25923  0.00879  Biso   1.000  Zn
  Zn30     1.0000 0.00520  0.20843  0.98625  Biso   1.000  Zn
  S46      1.0000 0.85901  0.22867  0.12970  Biso   1.000  S
  S47      1.0000 0.12070  0.22334  0.12400  Biso   1.000  S
  S48      1.0000 0.62080  0.21435  0.13240  Biso   1.000  S
  S49      1.0000 0.73470  0.25494  0.47200  Biso   1.000  S
  S50      1.0000 0.97890  0.25630  0.76800  Biso   1.000  S
  O109     1.0000 0.93470  0.24130  0.04830  Biso   1.000  O
  O110     1.0000 0.95740  0.20821  0.04030  Biso   1.000  O
  O111     1.0000 0.70240  0.18856  0.24880  Biso   1.000  O
  O112     1.0000 0.69030  0.22154  0.22030  Biso   1.000  O
  O113     1.0000 0.79410  0.19573  0.24920  Biso   1.000  O
  O114     1.0000 0.77970  0.22642  0.20610  Biso   1.000  O
  O115     1.0000 0.78040  0.20790  0.40690  Biso   1.000  O
  O116     1.0000 0.72880  0.22019  0.35500  Biso   1.000  O
  O117     1.0000 0.98080  0.23958  0.92060  Biso   1.000  O
  O118     1.0000 0.02430  0.21740  0.88540  Biso   1.000  O
  O119     1.0000 0.02660  0.24708  0.06230  Biso   1.000  O
  O120     1.0000 0.05280  0.21794  0.03630  Biso   1.000  O
  C199     1.0000 0.68350  0.20251  0.21730  Biso   1.000  C
  C200     1.0000 0.05470  0.23508  0.06350  Biso   1.000  C
  C201     1.0000 0.93200  0.22250  0.06050  Biso   1.000  C
  C202     1.0000 0.89840  0.21480  0.10300  Biso   1.000  C
  C203     1.0000 0.65270  0.19627  0.16550  Biso   1.000  C
  C204     1.0000 0.80100  0.21000  0.21230  Biso   1.000  C
  C205     1.0000 0.09280  0.24037  0.09540  Biso   1.000  C
  C206     1.0000 0.89310  0.19540  0.12590  Biso   1.000  C
  C207     1.0000 0.83810  0.20840  0.17200  Biso   1.000  C
  C208     1.0000 0.10520  0.25970  0.10490  Biso   1.000  C
  C209     1.0000 0.63980  0.17670  0.15020  Biso   1.000  C
  C210     1.0000 0.86260  0.19150  0.16630  Biso   1.000  C
  C211     1.0000 0.00160  0.23300  0.87400  Biso   1.000  C
  C212     1.0000 0.00610  0.23600  0.80140  Biso   1.000  C
  C213     1.0000 0.99760  0.24820  0.81210  Biso   1.000  C
  C214     1.0000 0.75420  0.22040  0.40340  Biso   1.000  C
  C215     1.0000 0.70120  0.24930  0.45850  Biso   1.000  C
  C216     1.0000 0.80130  0.23540  0.49650  Biso   1.000  C
  C217     1.0000 0.73480  0.23610  0.46080  Biso   1.000  C
  C218     1.0000 0.76790  0.23700  0.45330  Biso   1.000  C
  C219     1.0000 0.02960  0.22620  0.76020  Biso   1.000  C
  C220     1.0000 0.97170  0.26520  0.81460  Biso   1.000  C
  Zn31     1.0000 0.50213  0.19207  0.93747  Biso   1.000  Zn
  Zn32     1.0000 0.26950  0.25923  0.24121  Biso   1.000  Zn
  Zn33     1.0000 0.24480  0.20843  0.26375  Biso   1.000  Zn
  S51      1.0000 0.39099  0.22867  0.12030  Biso   1.000  S
  S52      1.0000 0.12930  0.22334  0.12600  Biso   1.000  S
  S53      1.0000 0.62920  0.21435  0.11760  Biso   1.000  S
  S54      1.0000 0.51530  0.25494  0.77800  Biso   1.000  S
  S55      1.0000 0.27110  0.25630  0.48200  Biso   1.000  S
  O121     1.0000 0.31530  0.24130  0.20170  Biso   1.000  O
  O122     1.0000 0.29260  0.20821  0.20970  Biso   1.000  O
  O123     1.0000 0.54760  0.18856  0.00120  Biso   1.000  O
  O124     1.0000 0.55970  0.22154  0.02970  Biso   1.000  O
  O125     1.0000 0.45590  0.19573  0.00080  Biso   1.000  O
  O126     1.0000 0.47030  0.22642  0.04390  Biso   1.000  O
  O127     1.0000 0.46960  0.20790  0.84310  Biso   1.000  O
  O128     1.0000 0.52120  0.22019  0.89500  Biso   1.000  O
  O129     1.0000 0.26920  0.23958  0.32940  Biso   1.000  O
  O130     1.0000 0.22570  0.21740  0.36460  Biso   1.000  O
  O131     1.0000 0.22340  0.24708  0.18770  Biso   1.000  O
  O132     1.0000 0.19720  0.21794  0.21370  Biso   1.000  O
  C221     1.0000 0.56650  0.20251  0.03270  Biso   1.000  C
  C222     1.0000 0.19530  0.23508  0.18650  Biso   1.000  C
  C223     1.0000 0.31800  0.22250  0.18950  Biso   1.000  C
  C224     1.0000 0.35160  0.21480  0.14700  Biso   1.000  C
  C225     1.0000 0.59730  0.19627  0.08450  Biso   1.000  C
  C226     1.0000 0.44900  0.21000  0.03770  Biso   1.000  C
  C227     1.0000 0.15720  0.24037  0.15460  Biso   1.000  C
  C228     1.0000 0.35690  0.19540  0.12410  Biso   1.000  C
  C229     1.0000 0.41190  0.20840  0.07800  Biso   1.000  C
  C230     1.0000 0.14480  0.25970  0.14510  Biso   1.000  C
  C231     1.0000 0.61020  0.17670  0.09980  Biso   1.000  C
  C232     1.0000 0.38740  0.19150  0.08370  Biso   1.000  C
  C233     1.0000 0.24840  0.23300  0.37600  Biso   1.000  C
  C234     1.0000 0.24390  0.23600  0.44860  Biso   1.000  C
  C235     1.0000 0.25240  0.24820  0.43790  Biso   1.000  C
  C236     1.0000 0.49580  0.22040  0.84660  Biso   1.000  C
  C237     1.0000 0.54880  0.24930  0.79150  Biso   1.000  C
  C238     1.0000 0.44870  0.23540  0.75350  Biso   1.000  C
  C239     1.0000 0.51520  0.23610  0.78920  Biso   1.000  C
  C240     1.0000 0.48210  0.23700  0.79670  Biso   1.000  C
  C241     1.0000 0.22040  0.22620  0.48980  Biso   1.000  C
  C242     1.0000 0.27830  0.26520  0.43540  Biso   1.000  C
  Zn34     1.0000 0.00213  0.19207  0.43747  Biso   1.000  Zn
  Zn35     1.0000 0.76950  0.25923  0.74121  Biso   1.000  Zn
  Zn36     1.0000 0.74480  0.20843  0.76375  Biso   1.000  Zn
  S56      1.0000 0.89099  0.22867  0.62030  Biso   1.000  S
  S57      1.0000 0.62930  0.22334  0.62600  Biso   1.000  S
  S58      1.0000 0.12920  0.21435  0.61760  Biso   1.000  S
  S59      1.0000 0.01530  0.25494  0.27800  Biso   1.000  S
  S60      1.0000 0.77110  0.25630  0.98200  Biso   1.000  S
  O133     1.0000 0.81530  0.24130  0.70170  Biso   1.000  O
  O134     1.0000 0.79260  0.20821  0.70970  Biso   1.000  O
  O135     1.0000 0.04760  0.18856  0.50120  Biso   1.000  O
  O136     1.0000 0.05970  0.22154  0.52970  Biso   1.000  O
  O137     1.0000 0.95590  0.19573  0.50080  Biso   1.000  O
  O138     1.0000 0.97030  0.22642  0.54390  Biso   1.000  O
  O139     1.0000 0.96960  0.20790  0.34310  Biso   1.000  O
  O140     1.0000 0.02120  0.22019  0.39500  Biso   1.000  O
  O141     1.0000 0.76920  0.23958  0.82940  Biso   1.000  O
  O142     1.0000 0.72570  0.21740  0.86460  Biso   1.000  O
  O143     1.0000 0.72340  0.24708  0.68770  Biso   1.000  O
  O144     1.0000 0.69720  0.21794  0.71370  Biso   1.000  O
  C243     1.0000 0.06650  0.20251  0.53270  Biso   1.000  C
  C244     1.0000 0.69530  0.23508  0.68650  Biso   1.000  C
  C245     1.0000 0.81800  0.22250  0.68950  Biso   1.000  C
  C246     1.0000 0.85160  0.21480  0.64700  Biso   1.000  C
  C247     1.0000 0.09730  0.19627  0.58450  Biso   1.000  C
  C248     1.0000 0.94900  0.21000  0.53770  Biso   1.000  C
  C249     1.0000 0.65720  0.24037  0.65460  Biso   1.000  C
  C250     1.0000 0.85690  0.19540  0.62410  Biso   1.000  C
  C251     1.0000 0.91190  0.20840  0.57800  Biso   1.000  C
  C252     1.0000 0.64480  0.25970  0.64510  Biso   1.000  C
  C253     1.0000 0.11020  0.17670  0.59980  Biso   1.000  C
  C254     1.0000 0.88740  0.19150  0.58370  Biso   1.000  C
  C255     1.0000 0.74840  0.23300  0.87600  Biso   1.000  C
  C256     1.0000 0.74390  0.23600  0.94860  Biso   1.000  C
  C257     1.0000 0.75240  0.24820  0.93790  Biso   1.000  C
  C258     1.0000 0.99580  0.22040  0.34660  Biso   1.000  C
  C259     1.0000 0.04880  0.24930  0.29150  Biso   1.000  C
  C260     1.0000 0.94870  0.23540  0.25350  Biso   1.000  C
  C261     1.0000 0.01520  0.23610  0.28920  Biso   1.000  C
  C262     1.0000 0.98210  0.23700  0.29670  Biso   1.000  C
  C263     1.0000 0.72040  0.22620  0.98980  Biso   1.000  C
  C264     1.0000 0.77830  0.26520  0.93540  Biso   1.000  C
  Zn37     1.0000 0.75213  0.30793  0.68747  Biso   1.000  Zn
  Zn38     1.0000 0.51950  0.24077  0.99121  Biso   1.000  Zn
  Zn39     1.0000 0.49480  0.29157  0.01375  Biso   1.000  Zn
  S61      1.0000 0.64099  0.27133  0.87030  Biso   1.000  S
  S62      1.0000 0.37930  0.27666  0.87600  Biso   1.000  S
  S63      1.0000 0.87920  0.28565  0.86760  Biso   1.000  S
  S64      1.0000 0.76530  0.24506  0.52800  Biso   1.000  S
  S65      1.0000 0.52110  0.24370  0.23200  Biso   1.000  S
  O145     1.0000 0.56530  0.25870  0.95170  Biso   1.000  O
  O146     1.0000 0.54260  0.29179  0.95970  Biso   1.000  O
  O147     1.0000 0.79760  0.31144  0.75120  Biso   1.000  O
  O148     1.0000 0.80970  0.27846  0.77970  Biso   1.000  O
  O149     1.0000 0.70590  0.30427  0.75080  Biso   1.000  O
  O150     1.0000 0.72030  0.27358  0.79390  Biso   1.000  O
  O151     1.0000 0.71960  0.29210  0.59310  Biso   1.000  O
  O152     1.0000 0.77120  0.27981  0.64500  Biso   1.000  O
  O153     1.0000 0.51920  0.26042  0.07940  Biso   1.000  O
  O154     1.0000 0.47570  0.28260  0.11460  Biso   1.000  O
  O155     1.0000 0.47340  0.25292  0.93770  Biso   1.000  O
  O156     1.0000 0.44720  0.28206  0.96370  Biso   1.000  O
  C265     1.0000 0.81650  0.29749  0.78270  Biso   1.000  C
  C266     1.0000 0.44530  0.26492  0.93650  Biso   1.000  C
  C267     1.0000 0.56800  0.27750  0.93950  Biso   1.000  C
  C268     1.0000 0.60160  0.28520  0.89700  Biso   1.000  C
  C269     1.0000 0.84730  0.30373  0.83450  Biso   1.000  C
  C270     1.0000 0.69900  0.29000  0.78770  Biso   1.000  C
  C271     1.0000 0.40720  0.25963  0.90460  Biso   1.000  C
  C272     1.0000 0.60690  0.30460  0.87410  Biso   1.000  C
  C273     1.0000 0.66190  0.29160  0.82800  Biso   1.000  C
  C274     1.0000 0.39480  0.24030  0.89510  Biso   1.000  C
  C275     1.0000 0.86020  0.32330  0.84980  Biso   1.000  C
  C276     1.0000 0.63740  0.30850  0.83370  Biso   1.000  C
  C277     1.0000 0.49840  0.26700  0.12600  Biso   1.000  C
  C278     1.0000 0.49390  0.26400  0.19860  Biso   1.000  C
  C279     1.0000 0.50240  0.25180  0.18790  Biso   1.000  C
  C280     1.0000 0.74580  0.27960  0.59660  Biso   1.000  C
  C281     1.0000 0.79880  0.25070  0.54150  Biso   1.000  C
  C282     1.0000 0.69870  0.26460  0.50350  Biso   1.000  C
  C283     1.0000 0.76520  0.26390  0.53920  Biso   1.000  C
  C284     1.0000 0.73210  0.26300  0.54670  Biso   1.000  C
  C285     1.0000 0.47040  0.27380  0.23980  Biso   1.000  C
  C286     1.0000 0.52830  0.23480  0.18540  Biso   1.000  C
  Zn40     1.0000 0.25213  0.30793  0.18747  Biso   1.000  Zn
  Zn41     1.0000 0.01950  0.24077  0.49121  Biso   1.000  Zn
  Zn42     1.0000 0.99480  0.29157  0.51375  Biso   1.000  Zn
  S66      1.0000 0.14099  0.27133  0.37030  Biso   1.000  S
  S67      1.0000 0.87930  0.27666  0.37600  Biso   1.000  S
  S68      1.0000 0.37920  0.28565  0.36760  Biso   1.000  S
  S69      1.0000 0.26530  0.24506  0.02800  Biso   1.000  S
  S70      1.0000 0.02110  0.24370  0.73200  Biso   1.000  S
  O157     1.0000 0.06530  0.25870  0.45170  Biso   1.000  O
  O158     1.0000 0.04260  0.29179  0.45970  Biso   1.000  O
  O159     1.0000 0.29760  0.31144  0.25120  Biso   1.000  O
  O160     1.0000 0.30970  0.27846  0.27970  Biso   1.000  O
  O161     1.0000 0.20590  0.30427  0.25080  Biso   1.000  O
  O162     1.0000 0.22030  0.27358  0.29390  Biso   1.000  O
  O163     1.0000 0.21960  0.29210  0.09310  Biso   1.000  O
  O164     1.0000 0.27120  0.27981  0.14500  Biso   1.000  O
  O165     1.0000 0.01920  0.26042  0.57940  Biso   1.000  O
  O166     1.0000 0.97570  0.28260  0.61460  Biso   1.000  O
  O167     1.0000 0.97340  0.25292  0.43770  Biso   1.000  O
  O168     1.0000 0.94720  0.28206  0.46370  Biso   1.000  O
  C287     1.0000 0.31650  0.29749  0.28270  Biso   1.000  C
  C288     1.0000 0.94530  0.26492  0.43650  Biso   1.000  C
  C289     1.0000 0.06800  0.27750  0.43950  Biso   1.000  C
  C290     1.0000 0.10160  0.28520  0.39700  Biso   1.000  C
  C291     1.0000 0.34730  0.30373  0.33450  Biso   1.000  C
  C292     1.0000 0.19900  0.29000  0.28770  Biso   1.000  C
  C293     1.0000 0.90720  0.25963  0.40460  Biso   1.000  C
  C294     1.0000 0.10690  0.30460  0.37410  Biso   1.000  C
  C295     1.0000 0.16190  0.29160  0.32800  Biso   1.000  C
  C296     1.0000 0.89480  0.24030  0.39510  Biso   1.000  C
  C297     1.0000 0.36020  0.32330  0.34980  Biso   1.000  C
  C298     1.0000 0.13740  0.30850  0.33370  Biso   1.000  C
  C299     1.0000 0.99840  0.26700  0.62600  Biso   1.000  C
  C300     1.0000 0.99390  0.26400  0.69860  Biso   1.000  C
  C301     1.0000 0.00240  0.25180  0.68790  Biso   1.000  C
  C302     1.0000 0.24580  0.27960  0.09660  Biso   1.000  C
  C303     1.0000 0.29880  0.25070  0.04150  Biso   1.000  C
  C304     1.0000 0.19870  0.26460  0.00350  Biso   1.000  C
  C305     1.0000 0.26520  0.26390  0.03920  Biso   1.000  C
  C306     1.0000 0.23210  0.26300  0.04670  Biso   1.000  C
  C307     1.0000 0.97040  0.27380  0.73980  Biso   1.000  C
  C308     1.0000 0.02830  0.23480  0.68540  Biso   1.000  C
  Zn43     1.0000 0.49787  0.30793  0.56253  Biso   1.000  Zn
  Zn44     1.0000 0.73050  0.24077  0.25879  Biso   1.000  Zn
  Zn45     1.0000 0.75520  0.29157  0.23625  Biso   1.000  Zn
  S71      1.0000 0.60901  0.27133  0.37970  Biso   1.000  S
  S72      1.0000 0.87070  0.27666  0.37400  Biso   1.000  S
  S73      1.0000 0.37080  0.28565  0.38240  Biso   1.000  S
  S74      1.0000 0.48470  0.24506  0.72200  Biso   1.000  S
  S75      1.0000 0.72890  0.24370  0.01800  Biso   1.000  S
  O169     1.0000 0.68470  0.25870  0.29830  Biso   1.000  O
  O170     1.0000 0.70740  0.29179  0.29030  Biso   1.000  O
  O171     1.0000 0.45240  0.31144  0.49880  Biso   1.000  O
  O172     1.0000 0.44030  0.27846  0.47030  Biso   1.000  O
  O173     1.0000 0.54410  0.30427  0.49920  Biso   1.000  O
  O174     1.0000 0.52970  0.27358  0.45610  Biso   1.000  O
  O175     1.0000 0.53040  0.29210  0.65690  Biso   1.000  O
  O176     1.0000 0.47880  0.27981  0.60500  Biso   1.000  O
  O177     1.0000 0.73080  0.26042  0.17060  Biso   1.000  O
  O178     1.0000 0.77430  0.28260  0.13540  Biso   1.000  O
  O179     1.0000 0.77660  0.25292  0.31230  Biso   1.000  O
  O180     1.0000 0.80280  0.28206  0.28630  Biso   1.000  O
  C309     1.0000 0.43350  0.29749  0.46730  Biso   1.000  C
  C310     1.0000 0.80470  0.26492  0.31350  Biso   1.000  C
  C311     1.0000 0.68200  0.27750  0.31050  Biso   1.000  C
  C312     1.0000 0.64840  0.28520  0.35300  Biso   1.000  C
  C313     1.0000 0.40270  0.30373  0.41550  Biso   1.000  C
  C314     1.0000 0.55100  0.29000  0.46230  Biso   1.000  C
  C315     1.0000 0.84280  0.25963  0.34540  Biso   1.000  C
  C316     1.0000 0.64310  0.30460  0.37590  Biso   1.000  C
  C317     1.0000 0.58810  0.29160  0.42200  Biso   1.000  C
  C318     1.0000 0.85520  0.24030  0.35490  Biso   1.000  C
  C319     1.0000 0.38980  0.32330  0.40020  Biso   1.000  C
  C320     1.0000 0.61260  0.30850  0.41630  Biso   1.000  C
  C321     1.0000 0.75160  0.26700  0.12400  Biso   1.000  C
  C322     1.0000 0.75610  0.26400  0.05140  Biso   1.000  C
  C323     1.0000 0.74760  0.25180  0.06210  Biso   1.000  C
  C324     1.0000 0.50420  0.27960  0.65340  Biso   1.000  C
  C325     1.0000 0.45120  0.25070  0.70850  Biso   1.000  C
  C326     1.0000 0.55130  0.26460  0.74650  Biso   1.000  C
  C327     1.0000 0.48480  0.26390  0.71080  Biso   1.000  C
  C328     1.0000 0.51790  0.26300  0.70330  Biso   1.000  C
  C329     1.0000 0.77960  0.27380  0.01020  Biso   1.000  C
  C330     1.0000 0.72170  0.23480  0.06460  Biso   1.000  C
  Zn46     1.0000 0.99787  0.30793  0.06253  Biso   1.000  Zn
  Zn47     1.0000 0.23050  0.24077  0.75879  Biso   1.000  Zn
  Zn48     1.0000 0.25520  0.29157  0.73625  Biso   1.000  Zn
  S76      1.0000 0.10901  0.27133  0.87970  Biso   1.000  S
  S77      1.0000 0.37070  0.27666  0.87400  Biso   1.000  S
  S78      1.0000 0.87080  0.28565  0.88240  Biso   1.000  S
  S79      1.0000 0.98470  0.24506  0.22200  Biso   1.000  S
  S80      1.0000 0.22890  0.24370  0.51800  Biso   1.000  S
  O181     1.0000 0.18470  0.25870  0.79830  Biso   1.000  O
  O182     1.0000 0.20740  0.29179  0.79030  Biso   1.000  O
  O183     1.0000 0.95240  0.31144  0.99880  Biso   1.000  O
  O184     1.0000 0.94030  0.27846  0.97030  Biso   1.000  O
  O185     1.0000 0.04410  0.30427  0.99920  Biso   1.000  O
  O186     1.0000 0.02970  0.27358  0.95610  Biso   1.000  O
  O187     1.0000 0.03040  0.29210  0.15690  Biso   1.000  O
  O188     1.0000 0.97880  0.27981  0.10500  Biso   1.000  O
  O189     1.0000 0.23080  0.26042  0.67060  Biso   1.000  O
  O190     1.0000 0.27430  0.28260  0.63540  Biso   1.000  O
  O191     1.0000 0.27660  0.25292  0.81230  Biso   1.000  O
  O192     1.0000 0.30280  0.28206  0.78630  Biso   1.000  O
  C331     1.0000 0.93350  0.29749  0.96730  Biso   1.000  C
  C332     1.0000 0.30470  0.26492  0.81350  Biso   1.000  C
  C333     1.0000 0.18200  0.27750  0.81050  Biso   1.000  C
  C334     1.0000 0.14840  0.28520  0.85300  Biso   1.000  C
  C335     1.0000 0.90270  0.30373  0.91550  Biso   1.000  C
  C336     1.0000 0.05100  0.29000  0.96230  Biso   1.000  C
  C337     1.0000 0.34280  0.25963  0.84540  Biso   1.000  C
  C338     1.0000 0.14310  0.30460  0.87590  Biso   1.000  C
  C339     1.0000 0.08810  0.29160  0.92200  Biso   1.000  C
  C340     1.0000 0.35520  0.24030  0.85490  Biso   1.000  C
  C341     1.0000 0.88980  0.32330  0.90020  Biso   1.000  C
  C342     1.0000 0.11260  0.30850  0.91630  Biso   1.000  C
  C343     1.0000 0.25160  0.26700  0.62400  Biso   1.000  C
  C344     1.0000 0.25610  0.26400  0.55140  Biso   1.000  C
  C345     1.0000 0.24760  0.25180  0.56210  Biso   1.000  C
  C346     1.0000 0.00420  0.27960  0.15340  Biso   1.000  C
  C347     1.0000 0.95120  0.25070  0.20850  Biso   1.000  C
  C348     1.0000 0.05130  0.26460  0.24650  Biso   1.000  C
  C349     1.0000 0.98480  0.26390  0.21080  Biso   1.000  C
  C350     1.0000 0.01790  0.26300  0.20330  Biso   1.000  C
  C351     1.0000 0.27960  0.27380  0.51020  Biso   1.000  C
  C352     1.0000 0.22170  0.23480  0.56460  Biso   1.000  C
  Zn49     1.0000 0.50213  0.55793  0.81253  Biso   1.000  Zn
  Zn50     1.0000 0.26950  0.49077  0.50879  Biso   1.000  Zn
  Zn51     1.0000 0.24480  0.54157  0.48625  Biso   1.000  Zn
  S81      1.0000 0.39099  0.52133  0.62970  Biso   1.000  S
  S82      1.0000 0.12930  0.52666  0.62400  Biso   1.000  S
  S83      1.0000 0.62920  0.53565  0.63240  Biso   1.000  S
  S84      1.0000 0.51530  0.49506  0.97200  Biso   1.000  S
  S85      1.0000 0.27110  0.49370  0.26800  Biso   1.000  S
  O193     1.0000 0.31530  0.50870  0.54830  Biso   1.000  O
  O194     1.0000 0.29260  0.54179  0.54030  Biso   1.000  O
  O195     1.0000 0.54760  0.56144  0.74880  Biso   1.000  O
  O196     1.0000 0.55970  0.52846  0.72030  Biso   1.000  O
  O197     1.0000 0.45590  0.55427  0.74920  Biso   1.000  O
  O198     1.0000 0.47030  0.52358  0.70610  Biso   1.000  O
  O199     1.0000 0.46960  0.54210  0.90690  Biso   1.000  O
  O200     1.0000 0.52120  0.52981  0.85500  Biso   1.000  O
  O201     1.0000 0.26920  0.51042  0.42060  Biso   1.000  O
  O202     1.0000 0.22570  0.53260  0.38540  Biso   1.000  O
  O203     1.0000 0.22340  0.50292  0.56230  Biso   1.000  O
  O204     1.0000 0.19720  0.53206  0.53630  Biso   1.000  O
  C353     1.0000 0.56650  0.54749  0.71730  Biso   1.000  C
  C354     1.0000 0.19530  0.51492  0.56350  Biso   1.000  C
  C355     1.0000 0.31800  0.52750  0.56050  Biso   1.000  C
  C356     1.0000 0.35160  0.53520  0.60300  Biso   1.000  C
  C357     1.0000 0.59730  0.55373  0.66550  Biso   1.000  C
  C358     1.0000 0.44900  0.54000  0.71230  Biso   1.000  C
  C359     1.0000 0.15720  0.50963  0.59540  Biso   1.000  C
  C360     1.0000 0.35690  0.55460  0.62590  Biso   1.000  C
  C361     1.0000 0.41190  0.54160  0.67200  Biso   1.000  C
  C362     1.0000 0.14480  0.49030  0.60490  Biso   1.000  C
  C363     1.0000 0.61020  0.57330  0.65020  Biso   1.000  C
  C364     1.0000 0.38740  0.55850  0.66630  Biso   1.000  C
  C365     1.0000 0.24840  0.51700  0.37400  Biso   1.000  C
  C366     1.0000 0.24390  0.51400  0.30140  Biso   1.000  C
  C367     1.0000 0.25240  0.50180  0.31210  Biso   1.000  C
  C368     1.0000 0.49580  0.52960  0.90340  Biso   1.000  C
  C369     1.0000 0.54880  0.50070  0.95850  Biso   1.000  C
  C370     1.0000 0.44870  0.51460  0.99650  Biso   1.000  C
  C371     1.0000 0.51520  0.51390  0.96080  Biso   1.000  C
  C372     1.0000 0.48210  0.51300  0.95330  Biso   1.000  C
  C373     1.0000 0.22040  0.52380  0.26020  Biso   1.000  C
  C374     1.0000 0.27830  0.48480  0.31460  Biso   1.000  C
  Zn52     1.0000 0.00213  0.55793  0.31253  Biso   1.000  Zn
  Zn53     1.0000 0.76950  0.49077  0.00879  Biso   1.000  Zn
  Zn54     1.0000 0.74480  0.54157  0.98625  Biso   1.000  Zn
  S86      1.0000 0.89099  0.52133  0.12970  Biso   1.000  S
  S87      1.0000 0.62930  0.52666  0.12400  Biso   1.000  S
  S88      1.0000 0.12920  0.53565  0.13240  Biso   1.000  S
  S89      1.0000 0.01530  0.49506  0.47200  Biso   1.000  S
  S90      1.0000 0.77110  0.49370  0.76800  Biso   1.000  S
  O205     1.0000 0.81530  0.50870  0.04830  Biso   1.000  O
  O206     1.0000 0.79260  0.54179  0.04030  Biso   1.000  O
  O207     1.0000 0.04760  0.56144  0.24880  Biso   1.000  O
  O208     1.0000 0.05970  0.52846  0.22030  Biso   1.000  O
  O209     1.0000 0.95590  0.55427  0.24920  Biso   1.000  O
  O210     1.0000 0.97030  0.52358  0.20610  Biso   1.000  O
  O211     1.0000 0.96960  0.54210  0.40690  Biso   1.000  O
  O212     1.0000 0.02120  0.52981  0.35500  Biso   1.000  O
  O213     1.0000 0.76920  0.51042  0.92060  Biso   1.000  O
  O214     1.0000 0.72570  0.53260  0.88540  Biso   1.000  O
  O215     1.0000 0.72340  0.50292  0.06230  Biso   1.000  O
  O216     1.0000 0.69720  0.53206  0.03630  Biso   1.000  O
  C375     1.0000 0.06650  0.54749  0.21730  Biso   1.000  C
  C376     1.0000 0.69530  0.51492  0.06350  Biso   1.000  C
  C377     1.0000 0.81800  0.52750  0.06050  Biso   1.000  C
  C378     1.0000 0.85160  0.53520  0.10300  Biso   1.000  C
  C379     1.0000 0.09730  0.55373  0.16550  Biso   1.000  C
  C380     1.0000 0.94900  0.54000  0.21230  Biso   1.000  C
  C381     1.0000 0.65720  0.50963  0.09540  Biso   1.000  C
  C382     1.0000 0.85690  0.55460  0.12590  Biso   1.000  C
  C383     1.0000 0.91190  0.54160  0.17200  Biso   1.000  C
  C384     1.0000 0.64480  0.49030  0.10490  Biso   1.000  C
  C385     1.0000 0.11020  0.57330  0.15020  Biso   1.000  C
  C386     1.0000 0.88740  0.55850  0.16630  Biso   1.000  C
  C387     1.0000 0.74840  0.51700  0.87400  Biso   1.000  C
  C388     1.0000 0.74390  0.51400  0.80140  Biso   1.000  C
  C389     1.0000 0.75240  0.50180  0.81210  Biso   1.000  C
  C390     1.0000 0.99580  0.52960  0.40340  Biso   1.000  C
  C391     1.0000 0.04880  0.50070  0.45850  Biso   1.000  C
  C392     1.0000 0.94870  0.51460  0.49650  Biso   1.000  C
  C393     1.0000 0.01520  0.51390  0.46080  Biso   1.000  C
  C394     1.0000 0.98210  0.51300  0.45330  Biso   1.000  C
  C395     1.0000 0.72040  0.52380  0.76020  Biso   1.000  C
  C396     1.0000 0.77830  0.48480  0.81460  Biso   1.000  C
  Zn55     1.0000 0.24787  0.55793  0.93747  Biso   1.000  Zn
  Zn56     1.0000 0.48050  0.49077  0.24121  Biso   1.000  Zn
  Zn57     1.0000 0.50520  0.54157  0.26375  Biso   1.000  Zn
  S91      1.0000 0.35901  0.52133  0.12030  Biso   1.000  S
  S92      1.0000 0.62070  0.52666  0.12600  Biso   1.000  S
  S93      1.0000 0.12080  0.53565  0.11760  Biso   1.000  S
  S94      1.0000 0.23470  0.49506  0.77800  Biso   1.000  S
  S95      1.0000 0.47890  0.49370  0.48200  Biso   1.000  S
  O217     1.0000 0.43470  0.50870  0.20170  Biso   1.000  O
  O218     1.0000 0.45740  0.54179  0.20970  Biso   1.000  O
  O219     1.0000 0.20240  0.56144  0.00120  Biso   1.000  O
  O220     1.0000 0.19030  0.52846  0.02970  Biso   1.000  O
  O221     1.0000 0.29410  0.55427  0.00080  Biso   1.000  O
  O222     1.0000 0.27970  0.52358  0.04390  Biso   1.000  O
  O223     1.0000 0.28040  0.54210  0.84310  Biso   1.000  O
  O224     1.0000 0.22880  0.52981  0.89500  Biso   1.000  O
  O225     1.0000 0.48080  0.51042  0.32940  Biso   1.000  O
  O226     1.0000 0.52430  0.53260  0.36460  Biso   1.000  O
  O227     1.0000 0.52660  0.50292  0.18770  Biso   1.000  O
  O228     1.0000 0.55280  0.53206  0.21370  Biso   1.000  O
  C397     1.0000 0.18350  0.54749  0.03270  Biso   1.000  C
  C398     1.0000 0.55470  0.51492  0.18650  Biso   1.000  C
  C399     1.0000 0.43200  0.52750  0.18950  Biso   1.000  C
  C400     1.0000 0.39840  0.53520  0.14700  Biso   1.000  C
  C401     1.0000 0.15270  0.55373  0.08450  Biso   1.000  C
  C402     1.0000 0.30100  0.54000  0.03770  Biso   1.000  C
  C403     1.0000 0.59280  0.50963  0.15460  Biso   1.000  C
  C404     1.0000 0.39310  0.55460  0.12410  Biso   1.000  C
  C405     1.0000 0.33810  0.54160  0.07800  Biso   1.000  C
  C406     1.0000 0.60520  0.49030  0.14510  Biso   1.000  C
  C407     1.0000 0.13980  0.57330  0.09980  Biso   1.000  C
  C408     1.0000 0.36260  0.55850  0.08370  Biso   1.000  C
  C409     1.0000 0.50160  0.51700  0.37600  Biso   1.000  C
  C410     1.0000 0.50610  0.51400  0.44860  Biso   1.000  C
  C411     1.0000 0.49760  0.50180  0.43790  Biso   1.000  C
  C412     1.0000 0.25420  0.52960  0.84660  Biso   1.000  C
  C413     1.0000 0.20120  0.50070  0.79150  Biso   1.000  C
  C414     1.0000 0.30130  0.51460  0.75350  Biso   1.000  C
  C415     1.0000 0.23480  0.51390  0.78920  Biso   1.000  C
  C416     1.0000 0.26790  0.51300  0.79670  Biso   1.000  C
  C417     1.0000 0.52960  0.52380  0.48980  Biso   1.000  C
  C418     1.0000 0.47170  0.48480  0.43540  Biso   1.000  C
  Zn58     1.0000 0.74787  0.55793  0.43747  Biso   1.000  Zn
  Zn59     1.0000 0.98050  0.49077  0.74121  Biso   1.000  Zn
  Zn60     1.0000 0.00520  0.54157  0.76375  Biso   1.000  Zn
  S96      1.0000 0.85901  0.52133  0.62030  Biso   1.000  S
  S97      1.0000 0.12070  0.52666  0.62600  Biso   1.000  S
  S98      1.0000 0.62080  0.53565  0.61760  Biso   1.000  S
  S99      1.0000 0.73470  0.49506  0.27800  Biso   1.000  S
  S100     1.0000 0.97890  0.49370  0.98200  Biso   1.000  S
  O229     1.0000 0.93470  0.50870  0.70170  Biso   1.000  O
  O230     1.0000 0.95740  0.54179  0.70970  Biso   1.000  O
  O231     1.0000 0.70240  0.56144  0.50120  Biso   1.000  O
  O232     1.0000 0.69030  0.52846  0.52970  Biso   1.000  O
  O233     1.0000 0.79410  0.55427  0.50080  Biso   1.000  O
  O234     1.0000 0.77970  0.52358  0.54390  Biso   1.000  O
  O235     1.0000 0.78040  0.54210  0.34310  Biso   1.000  O
  O236     1.0000 0.72880  0.52981  0.39500  Biso   1.000  O
  O237     1.0000 0.98080  0.51042  0.82940  Biso   1.000  O
  O238     1.0000 0.02430  0.53260  0.86460  Biso   1.000  O
  O239     1.0000 0.02660  0.50292  0.68770  Biso   1.000  O
  O240     1.0000 0.05280  0.53206  0.71370  Biso   1.000  O
  C419     1.0000 0.68350  0.54749  0.53270  Biso   1.000  C
  C420     1.0000 0.05470  0.51492  0.68650  Biso   1.000  C
  C421     1.0000 0.93200  0.52750  0.68950  Biso   1.000  C
  C422     1.0000 0.89840  0.53520  0.64700  Biso   1.000  C
  C423     1.0000 0.65270  0.55373  0.58450  Biso   1.000  C
  C424     1.0000 0.80100  0.54000  0.53770  Biso   1.000  C
  C425     1.0000 0.09280  0.50963  0.65460  Biso   1.000  C
  C426     1.0000 0.89310  0.55460  0.62410  Biso   1.000  C
  C427     1.0000 0.83810  0.54160  0.57800  Biso   1.000  C
  C428     1.0000 0.10520  0.49030  0.64510  Biso   1.000  C
  C429     1.0000 0.63980  0.57330  0.59980  Biso   1.000  C
  C430     1.0000 0.86260  0.55850  0.58370  Biso   1.000  C
  C431     1.0000 0.00160  0.51700  0.87600  Biso   1.000  C
  C432     1.0000 0.00610  0.51400  0.94860  Biso   1.000  C
  C433     1.0000 0.99760  0.50180  0.93790  Biso   1.000  C
  C434     1.0000 0.75420  0.52960  0.34660  Biso   1.000  C
  C435     1.0000 0.70120  0.50070  0.29150  Biso   1.000  C
  C436     1.0000 0.80130  0.51460  0.25350  Biso   1.000  C
  C437     1.0000 0.73480  0.51390  0.28920  Biso   1.000  C
  C438     1.0000 0.76790  0.51300  0.29670  Biso   1.000  C
  C439     1.0000 0.02960  0.52380  0.98980  Biso   1.000  C
  C440     1.0000 0.97170  0.48480  0.93540  Biso   1.000  C
  Zn61     1.0000 0.49787  0.44207  0.18747  Biso   1.000  Zn
  Zn62     1.0000 0.73050  0.50923  0.49121  Biso   1.000  Zn
  Zn63     1.0000 0.75520  0.45843  0.51375  Biso   1.000  Zn
  S101     1.0000 0.60901  0.47867  0.37030  Biso   1.000  S
  S102     1.0000 0.87070  0.47334  0.37600  Biso   1.000  S
  S103     1.0000 0.37080  0.46435  0.36760  Biso   1.000  S
  S104     1.0000 0.48470  0.50494  0.02800  Biso   1.000  S
  S105     1.0000 0.72890  0.50630  0.73200  Biso   1.000  S
  O241     1.0000 0.68470  0.49130  0.45170  Biso   1.000  O
  O242     1.0000 0.70740  0.45821  0.45970  Biso   1.000  O
  O243     1.0000 0.45240  0.43856  0.25120  Biso   1.000  O
  O244     1.0000 0.44030  0.47154  0.27970  Biso   1.000  O
  O245     1.0000 0.54410  0.44573  0.25080  Biso   1.000  O
  O246     1.0000 0.52970  0.47642  0.29390  Biso   1.000  O
  O247     1.0000 0.53040  0.45790  0.09310  Biso   1.000  O
  O248     1.0000 0.47880  0.47019  0.14500  Biso   1.000  O
  O249     1.0000 0.73080  0.48958  0.57940  Biso   1.000  O
  O250     1.0000 0.77430  0.46740  0.61460  Biso   1.000  O
  O251     1.0000 0.77660  0.49708  0.43770  Biso   1.000  O
  O252     1.0000 0.80280  0.46794  0.46370  Biso   1.000  O
  C441     1.0000 0.43350  0.45251  0.28270  Biso   1.000  C
  C442     1.0000 0.80470  0.48508  0.43650  Biso   1.000  C
  C443     1.0000 0.68200  0.47250  0.43950  Biso   1.000  C
  C444     1.0000 0.64840  0.46480  0.39700  Biso   1.000  C
  C445     1.0000 0.40270  0.44627  0.33450  Biso   1.000  C
  C446     1.0000 0.55100  0.46000  0.28770  Biso   1.000  C
  C447     1.0000 0.84280  0.49037  0.40460  Biso   1.000  C
  C448     1.0000 0.64310  0.44540  0.37410  Biso   1.000  C
  C449     1.0000 0.58810  0.45840  0.32800  Biso   1.000  C
  C450     1.0000 0.85520  0.50970  0.39510  Biso   1.000  C
  C451     1.0000 0.38980  0.42670  0.34980  Biso   1.000  C
  C452     1.0000 0.61260  0.44150  0.33370  Biso   1.000  C
  C453     1.0000 0.75160  0.48300  0.62600  Biso   1.000  C
  C454     1.0000 0.75610  0.48600  0.69860  Biso   1.000  C
  C455     1.0000 0.74760  0.49820  0.68790  Biso   1.000  C
  C456     1.0000 0.50420  0.47040  0.09660  Biso   1.000  C
  C457     1.0000 0.45120  0.49930  0.04150  Biso   1.000  C
  C458     1.0000 0.55130  0.48540  0.00350  Biso   1.000  C
  C459     1.0000 0.48480  0.48610  0.03920  Biso   1.000  C
  C460     1.0000 0.51790  0.48700  0.04670  Biso   1.000  C
  C461     1.0000 0.77960  0.47620  0.73980  Biso   1.000  C
  C462     1.0000 0.72170  0.51520  0.68540  Biso   1.000  C
  Zn64     1.0000 0.99787  0.44207  0.68747  Biso   1.000  Zn
  Zn65     1.0000 0.23050  0.50923  0.99121  Biso   1.000  Zn
  Zn66     1.0000 0.25520  0.45843  0.01375  Biso   1.000  Zn
  S106     1.0000 0.10901  0.47867  0.87030  Biso   1.000  S
  S107     1.0000 0.37070  0.47334  0.87600  Biso   1.000  S
  S108     1.0000 0.87080  0.46435  0.86760  Biso   1.000  S
  S109     1.0000 0.98470  0.50494  0.52800  Biso   1.000  S
  S110     1.0000 0.22890  0.50630  0.23200  Biso   1.000  S
  O253     1.0000 0.18470  0.49130  0.95170  Biso   1.000  O
  O254     1.0000 0.20740  0.45821  0.95970  Biso   1.000  O
  O255     1.0000 0.95240  0.43856  0.75120  Biso   1.000  O
  O256     1.0000 0.94030  0.47154  0.77970  Biso   1.000  O
  O257     1.0000 0.04410  0.44573  0.75080  Biso   1.000  O
  O258     1.0000 0.02970  0.47642  0.79390  Biso   1.000  O
  O259     1.0000 0.03040  0.45790  0.59310  Biso   1.000  O
  O260     1.0000 0.97880  0.47019  0.64500  Biso   1.000  O
  O261     1.0000 0.23080  0.48958  0.07940  Biso   1.000  O
  O262     1.0000 0.27430  0.46740  0.11460  Biso   1.000  O
  O263     1.0000 0.27660  0.49708  0.93770  Biso   1.000  O
  O264     1.0000 0.30280  0.46794  0.96370  Biso   1.000  O
  C463     1.0000 0.93350  0.45251  0.78270  Biso   1.000  C
  C464     1.0000 0.30470  0.48508  0.93650  Biso   1.000  C
  C465     1.0000 0.18200  0.47250  0.93950  Biso   1.000  C
  C466     1.0000 0.14840  0.46480  0.89700  Biso   1.000  C
  C467     1.0000 0.90270  0.44627  0.83450  Biso   1.000  C
  C468     1.0000 0.05100  0.46000  0.78770  Biso   1.000  C
  C469     1.0000 0.34280  0.49037  0.90460  Biso   1.000  C
  C470     1.0000 0.14310  0.44540  0.87410  Biso   1.000  C
  C471     1.0000 0.08810  0.45840  0.82800  Biso   1.000  C
  C472     1.0000 0.35520  0.50970  0.89510  Biso   1.000  C
  C473     1.0000 0.88980  0.42670  0.84980  Biso   1.000  C
  C474     1.0000 0.11260  0.44150  0.83370  Biso   1.000  C
  C475     1.0000 0.25160  0.48300  0.12600  Biso   1.000  C
  C476     1.0000 0.25610  0.48600  0.19860  Biso   1.000  C
  C477     1.0000 0.24760  0.49820  0.18790  Biso   1.000  C
  C478     1.0000 0.00420  0.47040  0.59660  Biso   1.000  C
  C479     1.0000 0.95120  0.49930  0.54150  Biso   1.000  C
  C480     1.0000 0.05130  0.48540  0.50350  Biso   1.000  C
  C481     1.0000 0.98480  0.48610  0.53920  Biso   1.000  C
  C482     1.0000 0.01790  0.48700  0.54670  Biso   1.000  C
  C483     1.0000 0.27960  0.47620  0.23980  Biso   1.000  C
  C484     1.0000 0.22170  0.51520  0.18540  Biso   1.000  C
  Zn67     1.0000 0.75213  0.44207  0.06253  Biso   1.000  Zn
  Zn68     1.0000 0.51950  0.50923  0.75879  Biso   1.000  Zn
  Zn69     1.0000 0.49480  0.45843  0.73625  Biso   1.000  Zn
  S111     1.0000 0.64099  0.47867  0.87970  Biso   1.000  S
  S112     1.0000 0.37930  0.47334  0.87400  Biso   1.000  S
  S113     1.0000 0.87920  0.46435  0.88240  Biso   1.000  S
  S114     1.0000 0.76530  0.50494  0.22200  Biso   1.000  S
  S115     1.0000 0.52110  0.50630  0.51800  Biso   1.000  S
  O265     1.0000 0.56530  0.49130  0.79830  Biso   1.000  O
  O266     1.0000 0.54260  0.45821  0.79030  Biso   1.000  O
  O267     1.0000 0.79760  0.43856  0.99880  Biso   1.000  O
  O268     1.0000 0.80970  0.47154  0.97030  Biso   1.000  O
  O269     1.0000 0.70590  0.44573  0.99920  Biso   1.000  O
  O270     1.0000 0.72030  0.47642  0.95610  Biso   1.000  O
  O271     1.0000 0.71960  0.45790  0.15690  Biso   1.000  O
  O272     1.0000 0.77120  0.47019  0.10500  Biso   1.000  O
  O273     1.0000 0.51920  0.48958  0.67060  Biso   1.000  O
  O274     1.0000 0.47570  0.46740  0.63540  Biso   1.000  O
  O275     1.0000 0.47340  0.49708  0.81230  Biso   1.000  O
  O276     1.0000 0.44720  0.46794  0.78630  Biso   1.000  O
  C485     1.0000 0.81650  0.45251  0.96730  Biso   1.000  C
  C486     1.0000 0.44530  0.48508  0.81350  Biso   1.000  C
  C487     1.0000 0.56800  0.47250  0.81050  Biso   1.000  C
  C488     1.0000 0.60160  0.46480  0.85300  Biso   1.000  C
  C489     1.0000 0.84730  0.44627  0.91550  Biso   1.000  C
  C490     1.0000 0.69900  0.46000  0.96230  Biso   1.000  C
  C491     1.0000 0.40720  0.49037  0.84540  Biso   1.000  C
  C492     1.0000 0.60690  0.44540  0.87590  Biso   1.000  C
  C493     1.0000 0.66190  0.45840  0.92200  Biso   1.000  C
  C494     1.0000 0.39480  0.50970  0.85490  Biso   1.000  C
  C495     1.0000 0.86020  0.42670  0.90020  Biso   1.000  C
  C496     1.0000 0.63740  0.44150  0.91630  Biso   1.000  C
  C497     1.0000 0.49840  0.48300  0.62400  Biso   1.000  C
  C498     1.0000 0.49390  0.48600  0.55140  Biso   1.000  C
  C499     1.0000 0.50240  0.49820  0.56210  Biso   1.000  C
  C500     1.0000 0.74580  0.47040  0.15340  Biso   1.000  C
  C501     1.0000 0.79880  0.49930  0.20850  Biso   1.000  C
  C502     1.0000 0.69870  0.48540  0.24650  Biso   1.000  C
  C503     1.0000 0.76520  0.48610  0.21080  Biso   1.000  C
  C504     1.0000 0.73210  0.48700  0.20330  Biso   1.000  C
  C505     1.0000 0.47040  0.47620  0.51020  Biso   1.000  C
  C506     1.0000 0.52830  0.51520  0.56460  Biso   1.000  C
  Zn70     1.0000 0.25213  0.44207  0.56253  Biso   1.000  Zn
  Zn71     1.0000 0.01950  0.50923  0.25879  Biso   1.000  Zn
  Zn72     1.0000 0.99480  0.45843  0.23625  Biso   1.000  Zn
  S116     1.0000 0.14099  0.47867  0.37970  Biso   1.000  S
  S117     1.0000 0.87930  0.47334  0.37400  Biso   1.000  S
  S118     1.0000 0.37920  0.46435  0.38240  Biso   1.000  S
  S119     1.0000 0.26530  0.50494  0.72200  Biso   1.000  S
  S120     1.0000 0.02110  0.50630  0.01800  Biso   1.000  S
  O277     1.0000 0.06530  0.49130  0.29830  Biso   1.000  O
  O278     1.0000 0.04260  0.45821  0.29030  Biso   1.000  O
  O279     1.0000 0.29760  0.43856  0.49880  Biso   1.000  O
  O280     1.0000 0.30970  0.47154  0.47030  Biso   1.000  O
  O281     1.0000 0.20590  0.44573  0.49920  Biso   1.000  O
  O282     1.0000 0.22030  0.47642  0.45610  Biso   1.000  O
  O283     1.0000 0.21960  0.45790  0.65690  Biso   1.000  O
  O284     1.0000 0.27120  0.47019  0.60500  Biso   1.000  O
  O285     1.0000 0.01920  0.48958  0.17060  Biso   1.000  O
  O286     1.0000 0.97570  0.46740  0.13540  Biso   1.000  O
  O287     1.0000 0.97340  0.49708  0.31230  Biso   1.000  O
  O288     1.0000 0.94720  0.46794  0.28630  Biso   1.000  O
  C507     1.0000 0.31650  0.45251  0.46730  Biso   1.000  C
  C508     1.0000 0.94530  0.48508  0.31350  Biso   1.000  C
  C509     1.0000 0.06800  0.47250  0.31050  Biso   1.000  C
  C510     1.0000 0.10160  0.46480  0.35300  Biso   1.000  C
  C511     1.0000 0.34730  0.44627  0.41550  Biso   1.000  C
  C512     1.0000 0.19900  0.46000  0.46230  Biso   1.000  C
  C513     1.0000 0.90720  0.49037  0.34540  Biso   1.000  C
  C514     1.0000 0.10690  0.44540  0.37590  Biso   1.000  C
  C515     1.0000 0.16190  0.45840  0.42200  Biso   1.000  C
  C516     1.0000 0.89480  0.50970  0.35490  Biso   1.000  C
  C517     1.0000 0.36020  0.42670  0.40020  Biso   1.000  C
  C518     1.0000 0.13740  0.44150  0.41630  Biso   1.000  C
  C519     1.0000 0.99840  0.48300  0.12400  Biso   1.000  C
  C520     1.0000 0.99390  0.48600  0.05140  Biso   1.000  C
  C521     1.0000 0.00240  0.49820  0.06210  Biso   1.000  C
  C522     1.0000 0.24580  0.47040  0.65340  Biso   1.000  C
  C523     1.0000 0.29880  0.49930  0.70850  Biso   1.000  C
  C524     1.0000 0.19870  0.48540  0.74650  Biso   1.000  C
  C525     1.0000 0.26520  0.48610  0.71080  Biso   1.000  C
  C526     1.0000 0.23210  0.48700  0.70330  Biso   1.000  C
  C527     1.0000 0.97040  0.47620  0.01020  Biso   1.000  C
  C528     1.0000 0.02830  0.51520  0.06460  Biso   1.000  C
  Zn73     1.0000 0.24787  0.69207  0.31253  Biso   1.000  Zn
  Zn74     1.0000 0.48050  0.75923  0.00879  Biso   1.000  Zn
  Zn75     1.0000 0.50520  0.70843  0.98625  Biso   1.000  Zn
  S121     1.0000 0.35901  0.72867  0.12970  Biso   1.000  S
  S122     1.0000 0.62070  0.72334  0.12400  Biso   1.000  S
  S123     1.0000 0.12080  0.71435  0.13240  Biso   1.000  S
  S124     1.0000 0.23470  0.75494  0.47200  Biso   1.000  S
  S125     1.0000 0.47890  0.75630  0.76800  Biso   1.000  S
  O289     1.0000 0.43470  0.74130  0.04830  Biso   1.000  O
  O290     1.0000 0.45740  0.70821  0.04030  Biso   1.000  O
  O291     1.0000 0.20240  0.68856  0.24880  Biso   1.000  O
  O292     1.0000 0.19030  0.72154  0.22030  Biso   1.000  O
  O293     1.0000 0.29410  0.69573  0.24920  Biso   1.000  O
  O294     1.0000 0.27970  0.72642  0.20610  Biso   1.000  O
  O295     1.0000 0.28040  0.70790  0.40690  Biso   1.000  O
  O296     1.0000 0.22880  0.72019  0.35500  Biso   1.000  O
  O297     1.0000 0.48080  0.73958  0.92060  Biso   1.000  O
  O298     1.0000 0.52430  0.71740  0.88540  Biso   1.000  O
  O299     1.0000 0.52660  0.74708  0.06230  Biso   1.000  O
  O300     1.0000 0.55280  0.71794  0.03630  Biso   1.000  O
  C529     1.0000 0.18350  0.70251  0.21730  Biso   1.000  C
  C530     1.0000 0.55470  0.73508  0.06350  Biso   1.000  C
  C531     1.0000 0.43200  0.72250  0.06050  Biso   1.000  C
  C532     1.0000 0.39840  0.71480  0.10300  Biso   1.000  C
  C533     1.0000 0.15270  0.69627  0.16550  Biso   1.000  C
  C534     1.0000 0.30100  0.71000  0.21230  Biso   1.000  C
  C535     1.0000 0.59280  0.74037  0.09540  Biso   1.000  C
  C536     1.0000 0.39310  0.69540  0.12590  Biso   1.000  C
  C537     1.0000 0.33810  0.70840  0.17200  Biso   1.000  C
  C538     1.0000 0.60520  0.75970  0.10490  Biso   1.000  C
  C539     1.0000 0.13980  0.67670  0.15020  Biso   1.000  C
  C540     1.0000 0.36260  0.69150  0.16630  Biso   1.000  C
  C541     1.0000 0.50160  0.73300  0.87400  Biso   1.000  C
  C542     1.0000 0.50610  0.73600  0.80140  Biso   1.000  C
  C543     1.0000 0.49760  0.74820  0.81210  Biso   1.000  C
  C544     1.0000 0.25420  0.72040  0.40340  Biso   1.000  C
  C545     1.0000 0.20120  0.74930  0.45850  Biso   1.000  C
  C546     1.0000 0.30130  0.73540  0.49650  Biso   1.000  C
  C547     1.0000 0.23480  0.73610  0.46080  Biso   1.000  C
  C548     1.0000 0.26790  0.73700  0.45330  Biso   1.000  C
  C549     1.0000 0.52960  0.72620  0.76020  Biso   1.000  C
  C550     1.0000 0.47170  0.76520  0.81460  Biso   1.000  C
  Zn76     1.0000 0.74787  0.69207  0.81253  Biso   1.000  Zn
  Zn77     1.0000 0.98050  0.75923  0.50879  Biso   1.000  Zn
  Zn78     1.0000 0.00520  0.70843  0.48625  Biso   1.000  Zn
  S126     1.0000 0.85901  0.72867  0.62970  Biso   1.000  S
  S127     1.0000 0.12070  0.72334  0.62400  Biso   1.000  S
  S128     1.0000 0.62080  0.71435  0.63240  Biso   1.000  S
  S129     1.0000 0.73470  0.75494  0.97200  Biso   1.000  S
  S130     1.0000 0.97890  0.75630  0.26800  Biso   1.000  S
  O301     1.0000 0.93470  0.74130  0.54830  Biso   1.000  O
  O302     1.0000 0.95740  0.70821  0.54030  Biso   1.000  O
  O303     1.0000 0.70240  0.68856  0.74880  Biso   1.000  O
  O304     1.0000 0.69030  0.72154  0.72030  Biso   1.000  O
  O305     1.0000 0.79410  0.69573  0.74920  Biso   1.000  O
  O306     1.0000 0.77970  0.72642  0.70610  Biso   1.000  O
  O307     1.0000 0.78040  0.70790  0.90690  Biso   1.000  O
  O308     1.0000 0.72880  0.72019  0.85500  Biso   1.000  O
  O309     1.0000 0.98080  0.73958  0.42060  Biso   1.000  O
  O310     1.0000 0.02430  0.71740  0.38540  Biso   1.000  O
  O311     1.0000 0.02660  0.74708  0.56230  Biso   1.000  O
  O312     1.0000 0.05280  0.71794  0.53630  Biso   1.000  O
  C551     1.0000 0.68350  0.70251  0.71730  Biso   1.000  C
  C552     1.0000 0.05470  0.73508  0.56350  Biso   1.000  C
  C553     1.0000 0.93200  0.72250  0.56050  Biso   1.000  C
  C554     1.0000 0.89840  0.71480  0.60300  Biso   1.000  C
  C555     1.0000 0.65270  0.69627  0.66550  Biso   1.000  C
  C556     1.0000 0.80100  0.71000  0.71230  Biso   1.000  C
  C557     1.0000 0.09280  0.74037  0.59540  Biso   1.000  C
  C558     1.0000 0.89310  0.69540  0.62590  Biso   1.000  C
  C559     1.0000 0.83810  0.70840  0.67200  Biso   1.000  C
  C560     1.0000 0.10520  0.75970  0.60490  Biso   1.000  C
  C561     1.0000 0.63980  0.67670  0.65020  Biso   1.000  C
  C562     1.0000 0.86260  0.69150  0.66630  Biso   1.000  C
  C563     1.0000 0.00160  0.73300  0.37400  Biso   1.000  C
  C564     1.0000 0.00610  0.73600  0.30140  Biso   1.000  C
  C565     1.0000 0.99760  0.74820  0.31210  Biso   1.000  C
  C566     1.0000 0.75420  0.72040  0.90340  Biso   1.000  C
  C567     1.0000 0.70120  0.74930  0.95850  Biso   1.000  C
  C568     1.0000 0.80130  0.73540  0.99650  Biso   1.000  C
  C569     1.0000 0.73480  0.73610  0.96080  Biso   1.000  C
  C570     1.0000 0.76790  0.73700  0.95330  Biso   1.000  C
  C571     1.0000 0.02960  0.72620  0.26020  Biso   1.000  C
  C572     1.0000 0.97170  0.76520  0.31460  Biso   1.000  C
  Zn79     1.0000 0.50213  0.69207  0.43747  Biso   1.000  Zn
  Zn80     1.0000 0.26950  0.75923  0.74121  Biso   1.000  Zn
  Zn81     1.0000 0.24480  0.70843  0.76375  Biso   1.000  Zn
  S131     1.0000 0.39099  0.72867  0.62030  Biso   1.000  S
  S132     1.0000 0.12930  0.72334  0.62600  Biso   1.000  S
  S133     1.0000 0.62920  0.71435  0.61760  Biso   1.000  S
  S134     1.0000 0.51530  0.75494  0.27800  Biso   1.000  S
  S135     1.0000 0.27110  0.75630  0.98200  Biso   1.000  S
  O313     1.0000 0.31530  0.74130  0.70170  Biso   1.000  O
  O314     1.0000 0.29260  0.70821  0.70970  Biso   1.000  O
  O315     1.0000 0.54760  0.68856  0.50120  Biso   1.000  O
  O316     1.0000 0.55970  0.72154  0.52970  Biso   1.000  O
  O317     1.0000 0.45590  0.69573  0.50080  Biso   1.000  O
  O318     1.0000 0.47030  0.72642  0.54390  Biso   1.000  O
  O319     1.0000 0.46960  0.70790  0.34310  Biso   1.000  O
  O320     1.0000 0.52120  0.72019  0.39500  Biso   1.000  O
  O321     1.0000 0.26920  0.73958  0.82940  Biso   1.000  O
  O322     1.0000 0.22570  0.71740  0.86460  Biso   1.000  O
  O323     1.0000 0.22340  0.74708  0.68770  Biso   1.000  O
  O324     1.0000 0.19720  0.71794  0.71370  Biso   1.000  O
  C573     1.0000 0.56650  0.70251  0.53270  Biso   1.000  C
  C574     1.0000 0.19530  0.73508  0.68650  Biso   1.000  C
  C575     1.0000 0.31800  0.72250  0.68950  Biso   1.000  C
  C576     1.0000 0.35160  0.71480  0.64700  Biso   1.000  C
  C577     1.0000 0.59730  0.69627  0.58450  Biso   1.000  C
  C578     1.0000 0.44900  0.71000  0.53770  Biso   1.000  C
  C579     1.0000 0.15720  0.74037  0.65460  Biso   1.000  C
  C580     1.0000 0.35690  0.69540  0.62410  Biso   1.000  C
  C581     1.0000 0.41190  0.70840  0.57800  Biso   1.000  C
  C582     1.0000 0.14480  0.75970  0.64510  Biso   1.000  C
  C583     1.0000 0.61020  0.67670  0.59980  Biso   1.000  C
  C584     1.0000 0.38740  0.69150  0.58370  Biso   1.000  C
  C585     1.0000 0.24840  0.73300  0.87600  Biso   1.000  C
  C586     1.0000 0.24390  0.73600  0.94860  Biso   1.000  C
  C587     1.0000 0.25240  0.74820  0.93790  Biso   1.000  C
  C588     1.0000 0.49580  0.72040  0.34660  Biso   1.000  C
  C589     1.0000 0.54880  0.74930  0.29150  Biso   1.000  C
  C590     1.0000 0.44870  0.73540  0.25350  Biso   1.000  C
  C591     1.0000 0.51520  0.73610  0.28920  Biso   1.000  C
  C592     1.0000 0.48210  0.73700  0.29670  Biso   1.000  C
  C593     1.0000 0.22040  0.72620  0.98980  Biso   1.000  C
  C594     1.0000 0.27830  0.76520  0.93540  Biso   1.000  C
  Zn82     1.0000 0.00213  0.69207  0.93747  Biso   1.000  Zn
  Zn83     1.0000 0.76950  0.75923  0.24121  Biso   1.000  Zn
  Zn84     1.0000 0.74480  0.70843  0.26375  Biso   1.000  Zn
  S136     1.0000 0.89099  0.72867  0.12030  Biso   1.000  S
  S137     1.0000 0.62930  0.72334  0.12600  Biso   1.000  S
  S138     1.0000 0.12920  0.71435  0.11760  Biso   1.000  S
  S139     1.0000 0.01530  0.75494  0.77800  Biso   1.000  S
  S140     1.0000 0.77110  0.75630  0.48200  Biso   1.000  S
  O325     1.0000 0.81530  0.74130  0.20170  Biso   1.000  O
  O326     1.0000 0.79260  0.70821  0.20970  Biso   1.000  O
  O327     1.0000 0.04760  0.68856  0.00120  Biso   1.000  O
  O328     1.0000 0.05970  0.72154  0.02970  Biso   1.000  O
  O329     1.0000 0.95590  0.69573  0.00080  Biso   1.000  O
  O330     1.0000 0.97030  0.72642  0.04390  Biso   1.000  O
  O331     1.0000 0.96960  0.70790  0.84310  Biso   1.000  O
  O332     1.0000 0.02120  0.72019  0.89500  Biso   1.000  O
  O333     1.0000 0.76920  0.73958  0.32940  Biso   1.000  O
  O334     1.0000 0.72570  0.71740  0.36460  Biso   1.000  O
  O335     1.0000 0.72340  0.74708  0.18770  Biso   1.000  O
  O336     1.0000 0.69720  0.71794  0.21370  Biso   1.000  O
  C595     1.0000 0.06650  0.70251  0.03270  Biso   1.000  C
  C596     1.0000 0.69530  0.73508  0.18650  Biso   1.000  C
  C597     1.0000 0.81800  0.72250  0.18950  Biso   1.000  C
  C598     1.0000 0.85160  0.71480  0.14700  Biso   1.000  C
  C599     1.0000 0.09730  0.69627  0.08450  Biso   1.000  C
  C600     1.0000 0.94900  0.71000  0.03770  Biso   1.000  C
  C601     1.0000 0.65720  0.74037  0.15460  Biso   1.000  C
  C602     1.0000 0.85690  0.69540  0.12410  Biso   1.000  C
  C603     1.0000 0.91190  0.70840  0.07800  Biso   1.000  C
  C604     1.0000 0.64480  0.75970  0.14510  Biso   1.000  C
  C605     1.0000 0.11020  0.67670  0.09980  Biso   1.000  C
  C606     1.0000 0.88740  0.69150  0.08370  Biso   1.000  C
  C607     1.0000 0.74840  0.73300  0.37600  Biso   1.000  C
  C608     1.0000 0.74390  0.73600  0.44860  Biso   1.000  C
  C609     1.0000 0.75240  0.74820  0.43790  Biso   1.000  C
  C610     1.0000 0.99580  0.72040  0.84660  Biso   1.000  C
  C611     1.0000 0.04880  0.74930  0.79150  Biso   1.000  C
  C612     1.0000 0.94870  0.73540  0.75350  Biso   1.000  C
  C613     1.0000 0.01520  0.73610  0.78920  Biso   1.000  C
  C614     1.0000 0.98210  0.73700  0.79670  Biso   1.000  C
  C615     1.0000 0.72040  0.72620  0.48980  Biso   1.000  C
  C616     1.0000 0.77830  0.76520  0.43540  Biso   1.000  C
  Zn85     1.0000 0.75213  0.80793  0.18747  Biso   1.000  Zn
  Zn86     1.0000 0.51950  0.74077  0.49121  Biso   1.000  Zn
  Zn87     1.0000 0.49480  0.79157  0.51375  Biso   1.000  Zn
  S141     1.0000 0.64099  0.77133  0.37030  Biso   1.000  S
  S142     1.0000 0.37930  0.77666  0.37600  Biso   1.000  S
  S143     1.0000 0.87920  0.78565  0.36760  Biso   1.000  S
  S144     1.0000 0.76530  0.74506  0.02800  Biso   1.000  S
  S145     1.0000 0.52110  0.74370  0.73200  Biso   1.000  S
  O337     1.0000 0.56530  0.75870  0.45170  Biso   1.000  O
  O338     1.0000 0.54260  0.79179  0.45970  Biso   1.000  O
  O339     1.0000 0.79760  0.81144  0.25120  Biso   1.000  O
  O340     1.0000 0.80970  0.77846  0.27970  Biso   1.000  O
  O341     1.0000 0.70590  0.80427  0.25080  Biso   1.000  O
  O342     1.0000 0.72030  0.77358  0.29390  Biso   1.000  O
  O343     1.0000 0.71960  0.79210  0.09310  Biso   1.000  O
  O344     1.0000 0.77120  0.77981  0.14500  Biso   1.000  O
  O345     1.0000 0.51920  0.76042  0.57940  Biso   1.000  O
  O346     1.0000 0.47570  0.78260  0.61460  Biso   1.000  O
  O347     1.0000 0.47340  0.75292  0.43770  Biso   1.000  O
  O348     1.0000 0.44720  0.78206  0.46370  Biso   1.000  O
  C617     1.0000 0.81650  0.79749  0.28270  Biso   1.000  C
  C618     1.0000 0.44530  0.76492  0.43650  Biso   1.000  C
  C619     1.0000 0.56800  0.77750  0.43950  Biso   1.000  C
  C620     1.0000 0.60160  0.78520  0.39700  Biso   1.000  C
  C621     1.0000 0.84730  0.80373  0.33450  Biso   1.000  C
  C622     1.0000 0.69900  0.79000  0.28770  Biso   1.000  C
  C623     1.0000 0.40720  0.75963  0.40460  Biso   1.000  C
  C624     1.0000 0.60690  0.80460  0.37410  Biso   1.000  C
  C625     1.0000 0.66190  0.79160  0.32800  Biso   1.000  C
  C626     1.0000 0.39480  0.74030  0.39510  Biso   1.000  C
  C627     1.0000 0.86020  0.82330  0.34980  Biso   1.000  C
  C628     1.0000 0.63740  0.80850  0.33370  Biso   1.000  C
  C629     1.0000 0.49840  0.76700  0.62600  Biso   1.000  C
  C630     1.0000 0.49390  0.76400  0.69860  Biso   1.000  C
  C631     1.0000 0.50240  0.75180  0.68790  Biso   1.000  C
  C632     1.0000 0.74580  0.77960  0.09660  Biso   1.000  C
  C633     1.0000 0.79880  0.75070  0.04150  Biso   1.000  C
  C634     1.0000 0.69870  0.76460  0.00350  Biso   1.000  C
  C635     1.0000 0.76520  0.76390  0.03920  Biso   1.000  C
  C636     1.0000 0.73210  0.76300  0.04670  Biso   1.000  C
  C637     1.0000 0.47040  0.77380  0.73980  Biso   1.000  C
  C638     1.0000 0.52830  0.73480  0.68540  Biso   1.000  C
  Zn88     1.0000 0.25213  0.80793  0.68747  Biso   1.000  Zn
  Zn89     1.0000 0.01950  0.74077  0.99121  Biso   1.000  Zn
  Zn90     1.0000 0.99480  0.79157  0.01375  Biso   1.000  Zn
  S146     1.0000 0.14099  0.77133  0.87030  Biso   1.000  S
  S147     1.0000 0.87930  0.77666  0.87600  Biso   1.000  S
  S148     1.0000 0.37920  0.78565  0.86760  Biso   1.000  S
  S149     1.0000 0.26530  0.74506  0.52800  Biso   1.000  S
  S150     1.0000 0.02110  0.74370  0.23200  Biso   1.000  S
  O349     1.0000 0.06530  0.75870  0.95170  Biso   1.000  O
  O350     1.0000 0.04260  0.79179  0.95970  Biso   1.000  O
  O351     1.0000 0.29760  0.81144  0.75120  Biso   1.000  O
  O352     1.0000 0.30970  0.77846  0.77970  Biso   1.000  O
  O353     1.0000 0.20590  0.80427  0.75080  Biso   1.000  O
  O354     1.0000 0.22030  0.77358  0.79390  Biso   1.000  O
  O355     1.0000 0.21960  0.79210  0.59310  Biso   1.000  O
  O356     1.0000 0.27120  0.77981  0.64500  Biso   1.000  O
  O357     1.0000 0.01920  0.76042  0.07940  Biso   1.000  O
  O358     1.0000 0.97570  0.78260  0.11460  Biso   1.000  O
  O359     1.0000 0.97340  0.75292  0.93770  Biso   1.000  O
  O360     1.0000 0.94720  0.78206  0.96370  Biso   1.000  O
  C639     1.0000 0.31650  0.79749  0.78270  Biso   1.000  C
  C640     1.0000 0.94530  0.76492  0.93650  Biso   1.000  C
  C641     1.0000 0.06800  0.77750  0.93950  Biso   1.000  C
  C642     1.0000 0.10160  0.78520  0.89700  Biso   1.000  C
  C643     1.0000 0.34730  0.80373  0.83450  Biso   1.000  C
  C644     1.0000 0.19900  0.79000  0.78770  Biso   1.000  C
  C645     1.0000 0.90720  0.75963  0.90460  Biso   1.000  C
  C646     1.0000 0.10690  0.80460  0.87410  Biso   1.000  C
  C647     1.0000 0.16190  0.79160  0.82800  Biso   1.000  C
  C648     1.0000 0.89480  0.74030  0.89510  Biso   1.000  C
  C649     1.0000 0.36020  0.82330  0.84980  Biso   1.000  C
  C650     1.0000 0.13740  0.80850  0.83370  Biso   1.000  C
  C651     1.0000 0.99840  0.76700  0.12600  Biso   1.000  C
  C652     1.0000 0.99390  0.76400  0.19860  Biso   1.000  C
  C653     1.0000 0.00240  0.75180  0.18790  Biso   1.000  C
  C654     1.0000 0.24580  0.77960  0.59660  Biso   1.000  C
  C655     1.0000 0.29880  0.75070  0.54150  Biso   1.000  C
  C656     1.0000 0.19870  0.76460  0.50350  Biso   1.000  C
  C657     1.0000 0.26520  0.76390  0.53920  Biso   1.000  C
  C658     1.0000 0.23210  0.76300  0.54670  Biso   1.000  C
  C659     1.0000 0.97040  0.77380  0.23980  Biso   1.000  C
  C660     1.0000 0.02830  0.73480  0.18540  Biso   1.000  C
  Zn91     1.0000 0.49787  0.80793  0.06253  Biso   1.000  Zn
  Zn92     1.0000 0.73050  0.74077  0.75879  Biso   1.000  Zn
  Zn93     1.0000 0.75520  0.79157  0.73625  Biso   1.000  Zn
  S151     1.0000 0.60901  0.77133  0.87970  Biso   1.000  S
  S152     1.0000 0.87070  0.77666  0.87400  Biso   1.000  S
  S153     1.0000 0.37080  0.78565  0.88240  Biso   1.000  S
  S154     1.0000 0.48470  0.74506  0.22200  Biso   1.000  S
  S155     1.0000 0.72890  0.74370  0.51800  Biso   1.000  S
  O361     1.0000 0.68470  0.75870  0.79830  Biso   1.000  O
  O362     1.0000 0.70740  0.79179  0.79030  Biso   1.000  O
  O363     1.0000 0.45240  0.81144  0.99880  Biso   1.000  O
  O364     1.0000 0.44030  0.77846  0.97030  Biso   1.000  O
  O365     1.0000 0.54410  0.80427  0.99920  Biso   1.000  O
  O366     1.0000 0.52970  0.77358  0.95610  Biso   1.000  O
  O367     1.0000 0.53040  0.79210  0.15690  Biso   1.000  O
  O368     1.0000 0.47880  0.77981  0.10500  Biso   1.000  O
  O369     1.0000 0.73080  0.76042  0.67060  Biso   1.000  O
  O370     1.0000 0.77430  0.78260  0.63540  Biso   1.000  O
  O371     1.0000 0.77660  0.75292  0.81230  Biso   1.000  O
  O372     1.0000 0.80280  0.78206  0.78630  Biso   1.000  O
  C661     1.0000 0.43350  0.79749  0.96730  Biso   1.000  C
  C662     1.0000 0.80470  0.76492  0.81350  Biso   1.000  C
  C663     1.0000 0.68200  0.77750  0.81050  Biso   1.000  C
  C664     1.0000 0.64840  0.78520  0.85300  Biso   1.000  C
  C665     1.0000 0.40270  0.80373  0.91550  Biso   1.000  C
  C666     1.0000 0.55100  0.79000  0.96230  Biso   1.000  C
  C667     1.0000 0.84280  0.75963  0.84540  Biso   1.000  C
  C668     1.0000 0.64310  0.80460  0.87590  Biso   1.000  C
  C669     1.0000 0.58810  0.79160  0.92200  Biso   1.000  C
  C670     1.0000 0.85520  0.74030  0.85490  Biso   1.000  C
  C671     1.0000 0.38980  0.82330  0.90020  Biso   1.000  C
  C672     1.0000 0.61260  0.80850  0.91630  Biso   1.000  C
  C673     1.0000 0.75160  0.76700  0.62400  Biso   1.000  C
  C674     1.0000 0.75610  0.76400  0.55140  Biso   1.000  C
  C675     1.0000 0.74760  0.75180  0.56210  Biso   1.000  C
  C676     1.0000 0.50420  0.77960  0.15340  Biso   1.000  C
  C677     1.0000 0.45120  0.75070  0.20850  Biso   1.000  C
  C678     1.0000 0.55130  0.76460  0.24650  Biso   1.000  C
  C679     1.0000 0.48480  0.76390  0.21080  Biso   1.000  C
  C680     1.0000 0.51790  0.76300  0.20330  Biso   1.000  C
  C681     1.0000 0.77960  0.77380  0.51020  Biso   1.000  C
  C682     1.0000 0.72170  0.73480  0.56460  Biso   1.000  C
  Zn94     1.0000 0.99787  0.80793  0.56253  Biso   1.000  Zn
  Zn95     1.0000 0.23050  0.74077  0.25879  Biso   1.000  Zn
  Zn96     1.0000 0.25520  0.79157  0.23625  Biso   1.000  Zn
  S156     1.0000 0.10901  0.77133  0.37970  Biso   1.000  S
  S157     1.0000 0.37070  0.77666  0.37400  Biso   1.000  S
  S158     1.0000 0.87080  0.78565  0.38240  Biso   1.000  S
  S159     1.0000 0.98470  0.74506  0.72200  Biso   1.000  S
  S160     1.0000 0.22890  0.74370  0.01800  Biso   1.000  S
  O373     1.0000 0.18470  0.75870  0.29830  Biso   1.000  O
  O374     1.0000 0.20740  0.79179  0.29030  Biso   1.000  O
  O375     1.0000 0.95240  0.81144  0.49880  Biso   1.000  O
  O376     1.0000 0.94030  0.77846  0.47030  Biso   1.000  O
  O377     1.0000 0.04410  0.80427  0.49920  Biso   1.000  O
  O378     1.0000 0.02970  0.77358  0.45610  Biso   1.000  O
  O379     1.0000 0.03040  0.79210  0.65690  Biso   1.000  O
  O380     1.0000 0.97880  0.77981  0.60500  Biso   1.000  O
  O381     1.0000 0.23080  0.76042  0.17060  Biso   1.000  O
  O382     1.0000 0.27430  0.78260  0.13540  Biso   1.000  O
  O383     1.0000 0.27660  0.75292  0.31230  Biso   1.000  O
  O384     1.0000 0.30280  0.78206  0.28630  Biso   1.000  O
  C683     1.0000 0.93350  0.79749  0.46730  Biso   1.000  C
  C684     1.0000 0.30470  0.76492  0.31350  Biso   1.000  C
  C685     1.0000 0.18200  0.77750  0.31050  Biso   1.000  C
  C686     1.0000 0.14840  0.78520  0.35300  Biso   1.000  C
  C687     1.0000 0.90270  0.80373  0.41550  Biso   1.000  C
  C688     1.0000 0.05100  0.79000  0.46230  Biso   1.000  C
  C689     1.0000 0.34280  0.75963  0.34540  Biso   1.000  C
  C690     1.0000 0.14310  0.80460  0.37590  Biso   1.000  C
  C691     1.0000 0.08810  0.79160  0.42200  Biso   1.000  C
  C692     1.0000 0.35520  0.74030  0.35490  Biso   1.000  C
  C693     1.0000 0.88980  0.82330  0.40020  Biso   1.000  C
  C694     1.0000 0.11260  0.80850  0.41630  Biso   1.000  C
  C695     1.0000 0.25160  0.76700  0.12400  Biso   1.000  C
  C696     1.0000 0.25610  0.76400  0.05140  Biso   1.000  C
  C697     1.0000 0.24760  0.75180  0.06210  Biso   1.000  C
  C698     1.0000 0.00420  0.77960  0.65340  Biso   1.000  C
  C699     1.0000 0.95120  0.75070  0.70850  Biso   1.000  C
  C700     1.0000 0.05130  0.76460  0.74650  Biso   1.000  C
  C701     1.0000 0.98480  0.76390  0.71080  Biso   1.000  C
  C702     1.0000 0.01790  0.76300  0.70330  Biso   1.000  C
  C703     1.0000 0.27960  0.77380  0.01020  Biso   1.000  C
  C704     1.0000 0.22170  0.73480  0.06460  Biso   1.000  C
