data_image0
_cell_length_a       24.119
_cell_length_b       20.492
_cell_length_c       25.637
_cell_angle_alpha    90
_cell_angle_beta     110.969
_cell_angle_gamma    90

_symmetry_space_group_name_H-M    "P 1"
_symmetry_int_tables_number       1

loop_
  _symmetry_equiv_pos_as_xyz
  'x, y, z'

loop_
  _atom_site_label
  _atom_site_occupancy
  _atom_site_fract_x
  _atom_site_fract_y
  _atom_site_fract_z
  _atom_site_thermal_displace_type
  _atom_site_B_iso_or_equiv
  _atom_site_type_symbol
  Cd1      1.0000 0.01493  0.21803  0.21832  Biso   1.000  Cd
  Cd2      1.0000 0.20929  0.24412  0.30846  Biso   1.000  Cd
  Cd3      1.0000 0.16100  0.78520  0.47852  Biso   1.000  Cd
  Cd4      1.0000 0.12750  0.78363  0.31837  Biso   1.000  Cd
  Cd5      1.0000 0.84263  0.21079  0.18705  Biso   1.000  Cd
  Cd6      1.0000 0.75657  0.71640  0.17467  Biso   1.000  Cd
  O1       1.0000 0.10100  0.23400  0.30010  Biso   1.000  O
  O2       1.0000 0.16950  0.18570  0.37130  Biso   1.000  O
  O3       1.0000 0.94000  0.22500  0.25730  Biso   1.000  O
  O4       1.0000 0.86960  0.29520  0.25570  Biso   1.000  O
  O5       1.0000 0.91990  0.20860  0.14650  Biso   1.000  O
  O6       1.0000 0.84960  0.15230  0.08490  Biso   1.000  O
  O7       1.0000 0.08170  0.21940  0.17460  Biso   1.000  O
  O8       1.0000 0.13290  0.29150  0.14340  Biso   1.000  O
  O9       1.0000 0.20590  0.78750  0.40710  Biso   1.000  O
  O10      1.0000 0.21870  0.71540  0.35030  Biso   1.000  O
  O11      1.0000 0.24250  0.78550  0.56260  Biso   1.000  O
  O12      1.0000 0.30540  0.84510  0.62920  Biso   1.000  O
  O13      1.0000 0.08540  0.77190  0.39290  Biso   1.000  O
  O14      1.0000 0.04730  0.84620  0.32860  Biso   1.000  O
  O15      1.0000 0.10320  0.78090  0.53250  Biso   1.000  O
  O16      1.0000 0.09450  0.69740  0.58520  Biso   1.000  O
  O17      1.0000 0.82020  0.10770  0.18930  Biso   1.000  O
  O18      1.0000 0.85660  0.12270  0.28110  Biso   1.000  O
  O19      1.0000 0.75080  0.21630  0.21880  Biso   1.000  O
  O20      1.0000 0.70030  0.14940  0.25290  Biso   1.000  O
  N1       1.0000 0.01380  0.10870  0.22750  Biso   1.000  N
  N2       1.0000 0.97970  0.90840  0.20460  Biso   1.000  N
  H1       1.0000 0.00940  0.88600  0.20120  Biso   1.000  H
  N3       1.0000 0.83200  0.79090  0.18630  Biso   1.000  N
  N4       1.0000 0.00470  0.32810  0.20990  Biso   1.000  N
  N5       1.0000 0.97090  0.52680  0.21680  Biso   1.000  N
  H2       1.0000 0.93280  0.53630  0.20240  Biso   1.000  H
  N6       1.0000 0.07690  0.68950  0.28590  Biso   1.000  N
  N7       1.0000 0.21310  0.33510  0.36210  Biso   1.000  N
  N8       1.0000 0.21960  0.48030  0.48010  Biso   1.000  N
  H3       1.0000 0.23810  0.46600  0.51430  Biso   1.000  H
  N9       1.0000 0.17020  0.67560  0.47930  Biso   1.000  N
  N10      1.0000 0.79100  0.28060  0.11860  Biso   1.000  N
  N11      1.0000 0.70560  0.40420  0.98350  Biso   1.000  N
  H4       1.0000 0.69480  0.38450  0.95090  Biso   1.000  H
  N12      1.0000 0.66510  0.60370  0.97600  Biso   1.000  N
  C1       1.0000 0.11570  0.19900  0.34340  Biso   1.000  C
  C2       1.0000 0.87250  0.89750  0.18760  Biso   1.000  C
  H5       1.0000 0.86550  0.94320  0.18340  Biso   1.000  H
  C3       1.0000 0.06950  0.17120  0.36200  Biso   1.000  C
  C4       1.0000 0.07230  0.10460  0.37490  Biso   1.000  C
  H6       1.0000 0.10420  0.07950  0.37210  Biso   1.000  H
  C5       1.0000 0.03070  0.07430  0.39130  Biso   1.000  C
  H7       1.0000 0.03380  0.02910  0.40010  Biso   1.000  H
  C6       1.0000 0.98420  0.11070  0.39490  Biso   1.000  C
  H8       1.0000 0.95440  0.09020  0.40530  Biso   1.000  H
  C7       1.0000 0.98050  0.17580  0.38350  Biso   1.000  C
  H9       1.0000 0.94860  0.20010  0.38730  Biso   1.000  H
  C8       1.0000 0.02220  0.20800  0.36650  Biso   1.000  C
  C9       1.0000 0.01820  0.28040  0.36050  Biso   1.000  C
  C10      1.0000 0.96740  0.31190  0.32250  Biso   1.000  C
  C11      1.0000 0.96120  0.37870  0.32510  Biso   1.000  C
  H10      1.0000 0.92670  0.39970  0.30020  Biso   1.000  H
  C12      1.0000 0.00540  0.41530  0.36410  Biso   1.000  C
  H11      1.0000 0.00040  0.46110  0.36620  Biso   1.000  H
  C13      1.0000 0.05600  0.38650  0.39950  Biso   1.000  C
  H12      1.0000 0.08670  0.41210  0.42500  Biso   1.000  H
  C14      1.0000 0.06190  0.31970  0.39750  Biso   1.000  C
  H13      1.0000 0.09690  0.29970  0.42240  Biso   1.000  H
  C15      1.0000 0.92280  0.27470  0.27660  Biso   1.000  C
  C16      1.0000 0.90260  0.16990  0.10570  Biso   1.000  C
  C17      1.0000 0.94670  0.14080  0.08380  Biso   1.000  C
  C18      1.0000 0.98880  0.17950  0.07230  Biso   1.000  C
  C19      1.0000 0.03160  0.14800  0.05740  Biso   1.000  C
  H14      1.0000 0.06040  0.17350  0.04930  Biso   1.000  H
  C20      1.0000 0.03410  0.08290  0.05400  Biso   1.000  C
  H15      1.0000 0.06550  0.06330  0.04530  Biso   1.000  H
  C21      1.0000 0.99210  0.04400  0.06300  Biso   1.000  C
  H16      1.0000 0.99260  0.99810  0.05850  Biso   1.000  H
  C22      1.0000 0.94820  0.07400  0.07900  Biso   1.000  C
  H17      1.0000 0.91940  0.04800  0.08660  Biso   1.000  H
  C23      1.0000 0.98410  0.25260  0.07010  Biso   1.000  C
  C24      1.0000 0.03070  0.29090  0.09730  Biso   1.000  C
  C25      1.0000 0.02770  0.36000  0.08890  Biso   1.000  C
  H18      1.0000 0.06060  0.38760  0.10730  Biso   1.000  H
  C26      1.0000 0.97550  0.38430  0.05330  Biso   1.000  C
  H19      1.0000 0.97260  0.43010  0.04760  Biso   1.000  H
  C27      1.0000 0.92580  0.34650  0.02460  Biso   1.000  C
  H20      1.0000 0.89020  0.36590  0.00020  Biso   1.000  H
  C28      1.0000 0.93030  0.28050  0.03280  Biso   1.000  C
  H21      1.0000 0.89750  0.25310  0.01360  Biso   1.000  H
  C29      1.0000 0.08540  0.26740  0.14010  Biso   1.000  C
  C30      1.0000 0.04740  0.06840  0.20970  Biso   1.000  C
  H22      1.0000 0.07980  0.08620  0.20150  Biso   1.000  H
  C31      1.0000 0.03670  0.00300  0.20290  Biso   1.000  C
  H23      1.0000 0.06140  0.97660  0.18990  Biso   1.000  H
  C32      1.0000 0.99040  0.97420  0.21480  Biso   1.000  C
  C33      1.0000 0.95840  0.01530  0.23690  Biso   1.000  C
  H24      1.0000 0.92750  0.99820  0.24770  Biso   1.000  H
  C34      1.0000 0.97150  0.08050  0.24300  Biso   1.000  C
  H25      1.0000 0.94970  0.10730  0.25910  Biso   1.000  H
  C35      1.0000 0.92960  0.87270  0.19900  Biso   1.000  C
  C36      1.0000 0.93470  0.80440  0.20080  Biso   1.000  C
  H26      1.0000 0.97190  0.78440  0.20620  Biso   1.000  H
  C37      1.0000 0.88630  0.76670  0.19500  Biso   1.000  C
  H27      1.0000 0.89130  0.72060  0.19710  Biso   1.000  H
  C38      1.0000 0.82650  0.85540  0.18270  Biso   1.000  C
  H28      1.0000 0.78840  0.87360  0.17620  Biso   1.000  H
  C39      1.0000 0.04720  0.36840  0.24160  Biso   1.000  C
  H29      1.0000 0.08440  0.35020  0.26400  Biso   1.000  H
  C40      1.0000 0.03970  0.43430  0.24330  Biso   1.000  C
  H30      1.0000 0.07160  0.46110  0.26540  Biso   1.000  H
  C41      1.0000 0.98530  0.46180  0.21270  Biso   1.000  C
  C42      1.0000 0.94240  0.42150  0.17960  Biso   1.000  C
  H31      1.0000 0.90490  0.43860  0.15680  Biso   1.000  H
  C43      1.0000 0.95360  0.35580  0.17940  Biso   1.000  C
  H32      1.0000 0.92290  0.32850  0.15600  Biso   1.000  H
  C44      1.0000 0.00810  0.57840  0.24040  Biso   1.000  C
  C45      1.0000 0.06490  0.58430  0.24270  Biso   1.000  C
  H33      1.0000 0.08190  0.55040  0.22800  Biso   1.000  H
  C46      1.0000 0.09900  0.63940  0.26630  Biso   1.000  C
  H34      1.0000 0.13910  0.64120  0.26840  Biso   1.000  H
  C47      1.0000 0.02050  0.68430  0.28270  Biso   1.000  C
  H35      1.0000 0.00400  0.71940  0.29650  Biso   1.000  H
  C48      1.0000 0.98490  0.63110  0.26050  Biso   1.000  C
  H36      1.0000 0.94500  0.63040  0.25890  Biso   1.000  H
  C49      1.0000 0.19680  0.39600  0.34580  Biso   1.000  C
  H37      1.0000 0.18450  0.40510  0.30690  Biso   1.000  H
  C50      1.0000 0.19630  0.44690  0.38060  Biso   1.000  C
  H38      1.0000 0.18350  0.48920  0.36590  Biso   1.000  H
  C51      1.0000 0.21510  0.43530  0.43860  Biso   1.000  C
  C52      1.0000 0.23660  0.37240  0.45630  Biso   1.000  C
  H39      1.0000 0.25240  0.36230  0.49500  Biso   1.000  H
  C53      1.0000 0.23480  0.32530  0.41700  Biso   1.000  C
  H40      1.0000 0.25010  0.28320  0.43010  Biso   1.000  H
  C54      1.0000 0.19990  0.54350  0.47680  Biso   1.000  C
  C55      1.0000 0.15770  0.57330  0.43130  Biso   1.000  C
  H41      1.0000 0.13800  0.54910  0.39820  Biso   1.000  H
  C56      1.0000 0.14460  0.63800  0.43450  Biso   1.000  C
  H42      1.0000 0.11540  0.65730  0.40290  Biso   1.000  H
  C57      1.0000 0.20760  0.64510  0.52480  Biso   1.000  C
  H43      1.0000 0.22440  0.66980  0.55810  Biso   1.000  H
  C58      1.0000 0.22260  0.58130  0.52580  Biso   1.000  C
  H44      1.0000 0.24840  0.56210  0.55950  Biso   1.000  H
  C59      1.0000 0.23510  0.74060  0.39800  Biso   1.000  C
  C60      1.0000 0.28500  0.71160  0.44430  Biso   1.000  C
  C61      1.0000 0.31620  0.74820  0.49320  Biso   1.000  C
  C62      1.0000 0.35350  0.71440  0.53950  Biso   1.000  C
  H45      1.0000 0.37290  0.73760  0.57330  Biso   1.000  H
  C63      1.0000 0.36310  0.64750  0.53790  Biso   1.000  C
  H46      1.0000 0.38790  0.62490  0.57020  Biso   1.000  H
  C64      1.0000 0.33540  0.61440  0.48730  Biso   1.000  C
  H47      1.0000 0.34350  0.56940  0.48450  Biso   1.000  H
  C65      1.0000 0.29710  0.64630  0.44250  Biso   1.000  C
  H48      1.0000 0.27810  0.62280  0.40890  Biso   1.000  H
  C66      1.0000 0.31690  0.82070  0.49480  Biso   1.000  C
  C67      1.0000 0.30870  0.85680  0.53830  Biso   1.000  C
  C68      1.0000 0.32090  0.92340  0.54290  Biso   1.000  C
  H49      1.0000 0.31700  0.94730  0.57320  Biso   1.000  H
  C69      1.0000 0.33870  0.95500  0.50410  Biso   1.000  C
  H50      1.0000 0.34610  0.00070  0.50710  Biso   1.000  H
  C70      1.0000 0.34560  0.92040  0.46160  Biso   1.000  C
  H51      1.0000 0.35710  0.94230  0.43440  Biso   1.000  H
  C71      1.0000 0.33610  0.85460  0.45740  Biso   1.000  C
  H52      1.0000 0.34270  0.83130  0.42820  Biso   1.000  H
  C72      1.0000 0.28440  0.82700  0.57860  Biso   1.000  C
  C73      1.0000 0.04770  0.81710  0.37130  Biso   1.000  C
  C74      1.0000 0.00570  0.83550  0.40010  Biso   1.000  C
  C75      1.0000 0.99070  0.79250  0.43600  Biso   1.000  C
  C76      1.0000 0.95620  0.81510  0.46510  Biso   1.000  C
  H53      1.0000 0.94570  0.78620  0.48910  Biso   1.000  H
  C77      1.0000 0.93640  0.87930  0.45990  Biso   1.000  C
  H54      1.0000 0.91400  0.89450  0.48130  Biso   1.000  H
  C78      1.0000 0.94970  0.92130  0.42330  Biso   1.000  C
  H55      1.0000 0.93600  0.96510  0.41900  Biso   1.000  H
  C79      1.0000 0.98310  0.89840  0.39330  Biso   1.000  C
  H56      1.0000 0.99080  0.92650  0.36730  Biso   1.000  H
  C80      1.0000 0.00450  0.72070  0.43960  Biso   1.000  C
  C81      1.0000 0.04020  0.68960  0.48850  Biso   1.000  C
  C82      1.0000 0.04100  0.62090  0.49130  Biso   1.000  C
  H57      1.0000 0.06360  0.60000  0.52540  Biso   1.000  H
  C83      1.0000 0.01020  0.58380  0.44610  Biso   1.000  C
  H58      1.0000 0.01220  0.53750  0.44820  Biso   1.000  H
  C84      1.0000 0.97530  0.61490  0.39630  Biso   1.000  C
  H59      1.0000 0.95370  0.58980  0.36440  Biso   1.000  H
  C85      1.0000 0.97270  0.68130  0.39420  Biso   1.000  C
  H60      1.0000 0.94830  0.70160  0.36050  Biso   1.000  H
  C86      1.0000 0.08220  0.72520  0.53960  Biso   1.000  C
  C87      1.0000 0.82500  0.09310  0.23880  Biso   1.000  C
  C88      1.0000 0.78980  0.03440  0.24550  Biso   1.000  C
  C89      1.0000 0.73240  0.02020  0.20860  Biso   1.000  C
  C90      1.0000 0.70560  0.96250  0.21810  Biso   1.000  C
  H61      1.0000 0.66650  0.95140  0.19420  Biso   1.000  H
  C91      1.0000 0.73610  0.92190  0.26200  Biso   1.000  C
  H62      1.0000 0.71800  0.88230  0.26680  Biso   1.000  H
  C92      1.0000 0.79030  0.93690  0.29820  Biso   1.000  C
  H63      1.0000 0.80930  0.90880  0.32890  Biso   1.000  H
  C93      1.0000 0.81890  0.99340  0.29090  Biso   1.000  C
  H64      1.0000 0.85740  0.00400  0.31630  Biso   1.000  H
  C94      1.0000 0.69880  0.06070  0.15960  Biso   1.000  C
  C95      1.0000 0.69510  0.12840  0.16120  Biso   1.000  C
  C96      1.0000 0.66660  0.16340  0.11190  Biso   1.000  C
  H65      1.0000 0.66500  0.20970  0.11290  Biso   1.000  H
  C97      1.0000 0.64050  0.13050  0.06090  Biso   1.000  C
  H66      1.0000 0.62140  0.15400  0.02730  Biso   1.000  H
  C98      1.0000 0.64310  0.06240  0.06050  Biso   1.000  C
  H67      1.0000 0.62470  0.03940  0.02650  Biso   1.000  H
  C99      1.0000 0.67200  0.02870  0.10870  Biso   1.000  C
  H68      1.0000 0.67390  0.98240  0.10750  Biso   1.000  H
  C100     1.0000 0.71760  0.16800  0.21480  Biso   1.000  C
  C101     1.0000 0.75730  0.25890  0.06700  Biso   1.000  C
  H69      1.0000 0.75370  0.21310  0.06130  Biso   1.000  H
  C102     1.0000 0.72840  0.29800  0.02310  Biso   1.000  C
  H70      1.0000 0.70510  0.27950  0.98810  Biso   1.000  H
  C103     1.0000 0.73310  0.36600  0.02970  Biso   1.000  C
  C104     1.0000 0.76500  0.38910  0.08300  Biso   1.000  C
  H71      1.0000 0.76790  0.43460  0.09050  Biso   1.000  H
  C105     1.0000 0.79250  0.34470  0.12520  Biso   1.000  C
  H72      1.0000 0.81390  0.36150  0.16140  Biso   1.000  H
  C106     1.0000 0.69290  0.47110  0.98270  Biso   1.000  C
  C107     1.0000 0.69080  0.50760  0.93590  Biso   1.000  C
  H73      1.0000 0.69840  0.48760  0.90570  Biso   1.000  H
  C108     1.0000 0.67760  0.57300  0.93470  Biso   1.000  C
  H74      1.0000 0.67730  0.59800  0.90340  Biso   1.000  H
  C109     1.0000 0.66520  0.56800  0.01950  Biso   1.000  C
  H75      1.0000 0.65540  0.58880  0.04810  Biso   1.000  H
  C110     1.0000 0.67860  0.50280  0.02500  Biso   1.000  C
  H76      1.0000 0.67840  0.47940  0.05680  Biso   1.000  H
  Cd7      1.0000 0.48507  0.71803  0.28168  Biso   1.000  Cd
  Cd8      1.0000 0.29071  0.74412  0.19154  Biso   1.000  Cd
  Cd9      1.0000 0.33900  0.28520  0.02148  Biso   1.000  Cd
  Cd10     1.0000 0.37250  0.28363  0.18163  Biso   1.000  Cd
  Cd11     1.0000 0.65737  0.71079  0.31295  Biso   1.000  Cd
  Cd12     1.0000 0.74343  0.21640  0.32533  Biso   1.000  Cd
  O21      1.0000 0.39900  0.73400  0.19990  Biso   1.000  O
  O22      1.0000 0.33050  0.68570  0.12870  Biso   1.000  O
  O23      1.0000 0.56000  0.72500  0.24270  Biso   1.000  O
  O24      1.0000 0.63040  0.79520  0.24430  Biso   1.000  O
  O25      1.0000 0.58010  0.70860  0.35350  Biso   1.000  O
  O26      1.0000 0.65040  0.65230  0.41510  Biso   1.000  O
  O27      1.0000 0.41830  0.71940  0.32540  Biso   1.000  O
  O28      1.0000 0.36710  0.79150  0.35660  Biso   1.000  O
  O29      1.0000 0.29410  0.28750  0.09290  Biso   1.000  O
  O30      1.0000 0.28130  0.21540  0.14970  Biso   1.000  O
  O31      1.0000 0.25750  0.28550  0.93740  Biso   1.000  O
  O32      1.0000 0.19460  0.34510  0.87080  Biso   1.000  O
  O33      1.0000 0.41460  0.27190  0.10710  Biso   1.000  O
  O34      1.0000 0.45270  0.34620  0.17140  Biso   1.000  O
  O35      1.0000 0.39680  0.28090  0.96750  Biso   1.000  O
  O36      1.0000 0.40550  0.19740  0.91480  Biso   1.000  O
  O37      1.0000 0.67980  0.60770  0.31070  Biso   1.000  O
  O38      1.0000 0.64340  0.62270  0.21890  Biso   1.000  O
  O39      1.0000 0.74920  0.71630  0.28120  Biso   1.000  O
  O40      1.0000 0.79970  0.64940  0.24710  Biso   1.000  O
  N13      1.0000 0.48620  0.60870  0.27250  Biso   1.000  N
  N14      1.0000 0.52030  0.40840  0.29540  Biso   1.000  N
  H77      1.0000 0.49060  0.38600  0.29880  Biso   1.000  H
  N15      1.0000 0.66800  0.29090  0.31370  Biso   1.000  N
  N16      1.0000 0.49530  0.82810  0.29010  Biso   1.000  N
  N17      1.0000 0.52910  0.02680  0.28320  Biso   1.000  N
  H78      1.0000 0.56720  0.03630  0.29760  Biso   1.000  H
  N18      1.0000 0.42310  0.18950  0.21410  Biso   1.000  N
  N19      1.0000 0.28690  0.83510  0.13790  Biso   1.000  N
  N20      1.0000 0.28040  0.98030  0.01990  Biso   1.000  N
  H79      1.0000 0.26190  0.96600  0.98570  Biso   1.000  H
  N21      1.0000 0.32980  0.17560  0.02070  Biso   1.000  N
  N22      1.0000 0.70900  0.78060  0.38140  Biso   1.000  N
  N23      1.0000 0.79440  0.90420  0.51650  Biso   1.000  N
  H80      1.0000 0.80520  0.88450  0.54910  Biso   1.000  H
  N24      1.0000 0.83490  0.10370  0.52400  Biso   1.000  N
  C111     1.0000 0.38430  0.69900  0.15660  Biso   1.000  C
  C112     1.0000 0.62750  0.39750  0.31240  Biso   1.000  C
  H81      1.0000 0.63450  0.44320  0.31660  Biso   1.000  H
  C113     1.0000 0.43050  0.67120  0.13800  Biso   1.000  C
  C114     1.0000 0.42770  0.60460  0.12510  Biso   1.000  C
  H82      1.0000 0.39580  0.57950  0.12790  Biso   1.000  H
  C115     1.0000 0.46930  0.57430  0.10870  Biso   1.000  C
  H83      1.0000 0.46620  0.52910  0.09990  Biso   1.000  H
  C116     1.0000 0.51580  0.61070  0.10510  Biso   1.000  C
  H84      1.0000 0.54560  0.59020  0.09470  Biso   1.000  H
  C117     1.0000 0.51950  0.67580  0.11650  Biso   1.000  C
  H85      1.0000 0.55140  0.70010  0.11270  Biso   1.000  H
  C118     1.0000 0.47780  0.70800  0.13350  Biso   1.000  C
  C119     1.0000 0.48180  0.78040  0.13950  Biso   1.000  C
  C120     1.0000 0.53260  0.81190  0.17750  Biso   1.000  C
  C121     1.0000 0.53880  0.87870  0.17490  Biso   1.000  C
  H86      1.0000 0.57330  0.89970  0.19980  Biso   1.000  H
  C122     1.0000 0.49460  0.91530  0.13590  Biso   1.000  C
  H87      1.0000 0.49960  0.96110  0.13380  Biso   1.000  H
  C123     1.0000 0.44400  0.88650  0.10050  Biso   1.000  C
  H88      1.0000 0.41330  0.91210  0.07500  Biso   1.000  H
  C124     1.0000 0.43810  0.81970  0.10250  Biso   1.000  C
  H89      1.0000 0.40310  0.79970  0.07760  Biso   1.000  H
  C125     1.0000 0.57720  0.77470  0.22340  Biso   1.000  C
  C126     1.0000 0.59740  0.66990  0.39430  Biso   1.000  C
  C127     1.0000 0.55330  0.64080  0.41620  Biso   1.000  C
  C128     1.0000 0.51120  0.67950  0.42770  Biso   1.000  C
  C129     1.0000 0.46840  0.64800  0.44260  Biso   1.000  C
  H90      1.0000 0.43960  0.67350  0.45070  Biso   1.000  H
  C130     1.0000 0.46590  0.58290  0.44600  Biso   1.000  C
  H91      1.0000 0.43450  0.56330  0.45470  Biso   1.000  H
  C131     1.0000 0.50790  0.54400  0.43700  Biso   1.000  C
  H92      1.0000 0.50740  0.49810  0.44150  Biso   1.000  H
  C132     1.0000 0.55180  0.57400  0.42100  Biso   1.000  C
  H93      1.0000 0.58060  0.54800  0.41340  Biso   1.000  H
  C133     1.0000 0.51590  0.75260  0.42990  Biso   1.000  C
  C134     1.0000 0.46930  0.79090  0.40270  Biso   1.000  C
  C135     1.0000 0.47230  0.86000  0.41110  Biso   1.000  C
  H94      1.0000 0.43940  0.88760  0.39270  Biso   1.000  H
  C136     1.0000 0.52450  0.88430  0.44670  Biso   1.000  C
  H95      1.0000 0.52740  0.93010  0.45240  Biso   1.000  H
  C137     1.0000 0.57420  0.84650  0.47540  Biso   1.000  C
  H96      1.0000 0.60980  0.86590  0.49980  Biso   1.000  H
  C138     1.0000 0.56970  0.78050  0.46720  Biso   1.000  C
  H97      1.0000 0.60250  0.75310  0.48640  Biso   1.000  H
  C139     1.0000 0.41460  0.76740  0.35990  Biso   1.000  C
  C140     1.0000 0.45260  0.56840  0.29030  Biso   1.000  C
  H98      1.0000 0.42020  0.58620  0.29850  Biso   1.000  H
  C141     1.0000 0.46330  0.50300  0.29710  Biso   1.000  C
  H99      1.0000 0.43860  0.47660  0.31010  Biso   1.000  H
  C142     1.0000 0.50960  0.47420  0.28520  Biso   1.000  C
  C143     1.0000 0.54160  0.51530  0.26310  Biso   1.000  C
  H100     1.0000 0.57250  0.49820  0.25230  Biso   1.000  H
  C144     1.0000 0.52850  0.58050  0.25700  Biso   1.000  C
  H101     1.0000 0.55030  0.60730  0.24090  Biso   1.000  H
  C145     1.0000 0.57040  0.37270  0.30100  Biso   1.000  C
  C146     1.0000 0.56530  0.30440  0.29920  Biso   1.000  C
  H102     1.0000 0.52810  0.28440  0.29380  Biso   1.000  H
  C147     1.0000 0.61370  0.26670  0.30500  Biso   1.000  C
  H103     1.0000 0.60870  0.22060  0.30290  Biso   1.000  H
  C148     1.0000 0.67350  0.35540  0.31730  Biso   1.000  C
  H104     1.0000 0.71160  0.37360  0.32380  Biso   1.000  H
  C149     1.0000 0.45280  0.86840  0.25840  Biso   1.000  C
  H105     1.0000 0.41560  0.85020  0.23600  Biso   1.000  H
  C150     1.0000 0.46030  0.93430  0.25670  Biso   1.000  C
  H106     1.0000 0.42840  0.96110  0.23460  Biso   1.000  H
  C151     1.0000 0.51470  0.96180  0.28730  Biso   1.000  C
  C152     1.0000 0.55760  0.92150  0.32040  Biso   1.000  C
  H107     1.0000 0.59510  0.93860  0.34320  Biso   1.000  H
  C153     1.0000 0.54640  0.85580  0.32060  Biso   1.000  C
  H108     1.0000 0.57710  0.82850  0.34400  Biso   1.000  H
  C154     1.0000 0.49190  0.07840  0.25960  Biso   1.000  C
  C155     1.0000 0.43510  0.08430  0.25730  Biso   1.000  C
  H109     1.0000 0.41810  0.05040  0.27200  Biso   1.000  H
  C156     1.0000 0.40100  0.13940  0.23370  Biso   1.000  C
  H110     1.0000 0.36090  0.14120  0.23160  Biso   1.000  H
  C157     1.0000 0.47950  0.18430  0.21730  Biso   1.000  C
  H111     1.0000 0.49600  0.21940  0.20350  Biso   1.000  H
  C158     1.0000 0.51510  0.13110  0.23950  Biso   1.000  C
  H112     1.0000 0.55500  0.13040  0.24110  Biso   1.000  H
  C159     1.0000 0.30320  0.89600  0.15420  Biso   1.000  C
  H113     1.0000 0.31550  0.90510  0.19310  Biso   1.000  H
  C160     1.0000 0.30370  0.94690  0.11940  Biso   1.000  C
  H114     1.0000 0.31650  0.98920  0.13410  Biso   1.000  H
  C161     1.0000 0.28490  0.93530  0.06140  Biso   1.000  C
  C162     1.0000 0.26340  0.87240  0.04370  Biso   1.000  C
  H115     1.0000 0.24760  0.86230  0.00500  Biso   1.000  H
  C163     1.0000 0.26520  0.82530  0.08300  Biso   1.000  C
  H116     1.0000 0.24990  0.78320  0.06990  Biso   1.000  H
  C164     1.0000 0.30010  0.04350  0.02320  Biso   1.000  C
  C165     1.0000 0.34230  0.07330  0.06870  Biso   1.000  C
  H117     1.0000 0.36200  0.04910  0.10180  Biso   1.000  H
  C166     1.0000 0.35540  0.13800  0.06550  Biso   1.000  C
  H118     1.0000 0.38460  0.15730  0.09710  Biso   1.000  H
  C167     1.0000 0.29240  0.14510  0.97520  Biso   1.000  C
  H119     1.0000 0.27560  0.16980  0.94190  Biso   1.000  H
  C168     1.0000 0.27740  0.08130  0.97420  Biso   1.000  C
  H120     1.0000 0.25160  0.06210  0.94050  Biso   1.000  H
  C169     1.0000 0.26490  0.24060  0.10200  Biso   1.000  C
  C170     1.0000 0.21500  0.21160  0.05570  Biso   1.000  C
  C171     1.0000 0.18380  0.24820  0.00680  Biso   1.000  C
  C172     1.0000 0.14650  0.21440  0.96050  Biso   1.000  C
  H121     1.0000 0.12710  0.23760  0.92670  Biso   1.000  H
  C173     1.0000 0.13690  0.14750  0.96210  Biso   1.000  C
  H122     1.0000 0.11210  0.12490  0.92980  Biso   1.000  H
  C174     1.0000 0.16460  0.11440  0.01270  Biso   1.000  C
  H123     1.0000 0.15650  0.06940  0.01550  Biso   1.000  H
  C175     1.0000 0.20290  0.14630  0.05750  Biso   1.000  C
  H124     1.0000 0.22190  0.12280  0.09110  Biso   1.000  H
  C176     1.0000 0.18310  0.32070  0.00520  Biso   1.000  C
  C177     1.0000 0.19130  0.35680  0.96170  Biso   1.000  C
  C178     1.0000 0.17910  0.42340  0.95710  Biso   1.000  C
  H125     1.0000 0.18300  0.44730  0.92680  Biso   1.000  H
  C179     1.0000 0.16130  0.45500  0.99590  Biso   1.000  C
  H126     1.0000 0.15390  0.50070  0.99290  Biso   1.000  H
  C180     1.0000 0.15440  0.42040  0.03840  Biso   1.000  C
  H127     1.0000 0.14290  0.44230  0.06560  Biso   1.000  H
  C181     1.0000 0.16390  0.35460  0.04260  Biso   1.000  C
  H128     1.0000 0.15730  0.33130  0.07180  Biso   1.000  H
  C182     1.0000 0.21560  0.32700  0.92140  Biso   1.000  C
  C183     1.0000 0.45230  0.31710  0.12870  Biso   1.000  C
  C184     1.0000 0.49430  0.33550  0.09990  Biso   1.000  C
  C185     1.0000 0.50930  0.29250  0.06400  Biso   1.000  C
  C186     1.0000 0.54380  0.31510  0.03490  Biso   1.000  C
  H129     1.0000 0.55430  0.28620  0.01090  Biso   1.000  H
  C187     1.0000 0.56360  0.37930  0.04010  Biso   1.000  C
  H130     1.0000 0.58600  0.39450  0.01870  Biso   1.000  H
  C188     1.0000 0.55030  0.42130  0.07670  Biso   1.000  C
  H131     1.0000 0.56400  0.46510  0.08100  Biso   1.000  H
  C189     1.0000 0.51690  0.39840  0.10670  Biso   1.000  C
  H132     1.0000 0.50920  0.42650  0.13270  Biso   1.000  H
  C190     1.0000 0.49550  0.22070  0.06040  Biso   1.000  C
  C191     1.0000 0.45980  0.18960  0.01150  Biso   1.000  C
  C192     1.0000 0.45900  0.12090  0.00870  Biso   1.000  C
  H133     1.0000 0.43640  0.10000  0.97460  Biso   1.000  H
  C193     1.0000 0.48980  0.08380  0.05390  Biso   1.000  C
  H134     1.0000 0.48780  0.03750  0.05180  Biso   1.000  H
  C194     1.0000 0.52470  0.11490  0.10370  Biso   1.000  C
  H135     1.0000 0.54630  0.08980  0.13560  Biso   1.000  H
  C195     1.0000 0.52730  0.18130  0.10580  Biso   1.000  C
  H136     1.0000 0.55170  0.20160  0.13950  Biso   1.000  H
  C196     1.0000 0.41780  0.22520  0.96040  Biso   1.000  C
  C197     1.0000 0.67500  0.59310  0.26120  Biso   1.000  C
  C198     1.0000 0.71020  0.53440  0.25450  Biso   1.000  C
  C199     1.0000 0.76760  0.52020  0.29140  Biso   1.000  C
  C200     1.0000 0.79440  0.46250  0.28190  Biso   1.000  C
  H137     1.0000 0.83350  0.45140  0.30580  Biso   1.000  H
  C201     1.0000 0.76390  0.42190  0.23800  Biso   1.000  C
  H138     1.0000 0.78200  0.38230  0.23320  Biso   1.000  H
  C202     1.0000 0.70970  0.43690  0.20180  Biso   1.000  C
  H139     1.0000 0.69070  0.40880  0.17110  Biso   1.000  H
  C203     1.0000 0.68110  0.49340  0.20910  Biso   1.000  C
  H140     1.0000 0.64260  0.50400  0.18370  Biso   1.000  H
  C204     1.0000 0.80120  0.56070  0.34040  Biso   1.000  C
  C205     1.0000 0.80490  0.62840  0.33880  Biso   1.000  C
  C206     1.0000 0.83340  0.66340  0.38810  Biso   1.000  C
  H141     1.0000 0.83500  0.70970  0.38710  Biso   1.000  H
  C207     1.0000 0.85950  0.63050  0.43910  Biso   1.000  C
  H142     1.0000 0.87860  0.65400  0.47270  Biso   1.000  H
  C208     1.0000 0.85690  0.56240  0.43950  Biso   1.000  C
  H143     1.0000 0.87530  0.53940  0.47350  Biso   1.000  H
  C209     1.0000 0.82800  0.52870  0.39130  Biso   1.000  C
  H144     1.0000 0.82610  0.48240  0.39250  Biso   1.000  H
  C210     1.0000 0.78240  0.66800  0.28520  Biso   1.000  C
  C211     1.0000 0.74270  0.75890  0.43300  Biso   1.000  C
  H145     1.0000 0.74630  0.71310  0.43870  Biso   1.000  H
  C212     1.0000 0.77160  0.79800  0.47690  Biso   1.000  C
  H146     1.0000 0.79490  0.77950  0.51190  Biso   1.000  H
  C213     1.0000 0.76690  0.86600  0.47030  Biso   1.000  C
  C214     1.0000 0.73500  0.88910  0.41700  Biso   1.000  C
  H147     1.0000 0.73210  0.93460  0.40950  Biso   1.000  H
  C215     1.0000 0.70750  0.84470  0.37480  Biso   1.000  C
  H148     1.0000 0.68610  0.86150  0.33860  Biso   1.000  H
  C216     1.0000 0.80710  0.97110  0.51730  Biso   1.000  C
  C217     1.0000 0.80920  0.00760  0.56410  Biso   1.000  C
  H149     1.0000 0.80160  0.98760  0.59430  Biso   1.000  H
  C218     1.0000 0.82240  0.07300  0.56530  Biso   1.000  C
  H150     1.0000 0.82270  0.09800  0.59660  Biso   1.000  H
  C219     1.0000 0.83480  0.06800  0.48050  Biso   1.000  C
  H151     1.0000 0.84460  0.08880  0.45190  Biso   1.000  H
  C220     1.0000 0.82140  0.00280  0.47500  Biso   1.000  C
  H152     1.0000 0.82160  0.97940  0.44320  Biso   1.000  H
  Cd13     1.0000 0.98507  0.78197  0.78168  Biso   1.000  Cd
  Cd14     1.0000 0.79071  0.75588  0.69154  Biso   1.000  Cd
  Cd15     1.0000 0.83900  0.21480  0.52148  Biso   1.000  Cd
  Cd16     1.0000 0.87250  0.21637  0.68163  Biso   1.000  Cd
  Cd17     1.0000 0.15737  0.78921  0.81295  Biso   1.000  Cd
  Cd18     1.0000 0.24343  0.28360  0.82533  Biso   1.000  Cd
  O41      1.0000 0.89900  0.76600  0.69990  Biso   1.000  O
  O42      1.0000 0.83050  0.81430  0.62870  Biso   1.000  O
  O43      1.0000 0.06000  0.77500  0.74270  Biso   1.000  O
  O44      1.0000 0.13040  0.70480  0.74430  Biso   1.000  O
  O45      1.0000 0.08010  0.79140  0.85350  Biso   1.000  O
  O46      1.0000 0.15040  0.84770  0.91510  Biso   1.000  O
  O47      1.0000 0.91830  0.78060  0.82540  Biso   1.000  O
  O48      1.0000 0.86710  0.70850  0.85660  Biso   1.000  O
  O49      1.0000 0.79410  0.21250  0.59290  Biso   1.000  O
  O50      1.0000 0.78130  0.28460  0.64970  Biso   1.000  O
  O51      1.0000 0.75750  0.21450  0.43740  Biso   1.000  O
  O52      1.0000 0.69460  0.15490  0.37080  Biso   1.000  O
  O53      1.0000 0.91460  0.22810  0.60710  Biso   1.000  O
  O54      1.0000 0.95270  0.15380  0.67140  Biso   1.000  O
  O55      1.0000 0.89680  0.21910  0.46750  Biso   1.000  O
  O56      1.0000 0.90550  0.30260  0.41480  Biso   1.000  O
  O57      1.0000 0.17980  0.89230  0.81070  Biso   1.000  O
  O58      1.0000 0.14340  0.87730  0.71890  Biso   1.000  O
  O59      1.0000 0.24920  0.78370  0.78120  Biso   1.000  O
  O60      1.0000 0.29970  0.85060  0.74710  Biso   1.000  O
  N25      1.0000 0.98620  0.89130  0.77250  Biso   1.000  N
  N26      1.0000 0.02030  0.09160  0.79540  Biso   1.000  N
  H153     1.0000 0.99060  0.11400  0.79880  Biso   1.000  H
  N27      1.0000 0.16800  0.20910  0.81370  Biso   1.000  N
  N28      1.0000 0.99530  0.67190  0.79010  Biso   1.000  N
  N29      1.0000 0.02910  0.47320  0.78320  Biso   1.000  N
  H154     1.0000 0.06720  0.46370  0.79760  Biso   1.000  H
  N30      1.0000 0.92310  0.31050  0.71410  Biso   1.000  N
  N31      1.0000 0.78690  0.66490  0.63790  Biso   1.000  N
  N32      1.0000 0.78040  0.51970  0.51990  Biso   1.000  N
  H155     1.0000 0.76190  0.53400  0.48570  Biso   1.000  H
  N33      1.0000 0.82980  0.32440  0.52070  Biso   1.000  N
  N34      1.0000 0.20900  0.71940  0.88140  Biso   1.000  N
  N35      1.0000 0.29440  0.59580  0.01650  Biso   1.000  N
  H156     1.0000 0.30520  0.61550  0.04910  Biso   1.000  H
  N36      1.0000 0.33490  0.39630  0.02400  Biso   1.000  N
  C221     1.0000 0.88430  0.80100  0.65660  Biso   1.000  C
  C222     1.0000 0.12750  0.10250  0.81240  Biso   1.000  C
  H157     1.0000 0.13450  0.05680  0.81660  Biso   1.000  H
  C223     1.0000 0.93050  0.82880  0.63800  Biso   1.000  C
  C224     1.0000 0.92770  0.89540  0.62510  Biso   1.000  C
  H158     1.0000 0.89580  0.92050  0.62790  Biso   1.000  H
  C225     1.0000 0.96930  0.92570  0.60870  Biso   1.000  C
  H159     1.0000 0.96620  0.97090  0.59990  Biso   1.000  H
  C226     1.0000 0.01580  0.88930  0.60510  Biso   1.000  C
  H160     1.0000 0.04560  0.90980  0.59470  Biso   1.000  H
  C227     1.0000 0.01950  0.82420  0.61650  Biso   1.000  C
  H161     1.0000 0.05140  0.79990  0.61270  Biso   1.000  H
  C228     1.0000 0.97780  0.79200  0.63350  Biso   1.000  C
  C229     1.0000 0.98180  0.71960  0.63950  Biso   1.000  C
  C230     1.0000 0.03260  0.68810  0.67750  Biso   1.000  C
  C231     1.0000 0.03880  0.62130  0.67490  Biso   1.000  C
  H162     1.0000 0.07330  0.60030  0.69980  Biso   1.000  H
  C232     1.0000 0.99460  0.58470  0.63590  Biso   1.000  C
  H163     1.0000 0.99960  0.53890  0.63380  Biso   1.000  H
  C233     1.0000 0.94400  0.61350  0.60050  Biso   1.000  C
  H164     1.0000 0.91330  0.58790  0.57500  Biso   1.000  H
  C234     1.0000 0.93810  0.68030  0.60250  Biso   1.000  C
  H165     1.0000 0.90310  0.70030  0.57760  Biso   1.000  H
  C235     1.0000 0.07720  0.72530  0.72340  Biso   1.000  C
  C236     1.0000 0.09740  0.83010  0.89430  Biso   1.000  C
  C237     1.0000 0.05330  0.85920  0.91620  Biso   1.000  C
  C238     1.0000 0.01120  0.82050  0.92770  Biso   1.000  C
  C239     1.0000 0.96840  0.85200  0.94260  Biso   1.000  C
  H166     1.0000 0.93960  0.82650  0.95070  Biso   1.000  H
  C240     1.0000 0.96590  0.91710  0.94600  Biso   1.000  C
  H167     1.0000 0.93450  0.93670  0.95470  Biso   1.000  H
  C241     1.0000 0.00790  0.95600  0.93700  Biso   1.000  C
  H168     1.0000 0.00740  0.00190  0.94150  Biso   1.000  H
  C242     1.0000 0.05180  0.92600  0.92100  Biso   1.000  C
  H169     1.0000 0.08060  0.95200  0.91340  Biso   1.000  H
  C243     1.0000 0.01590  0.74740  0.92990  Biso   1.000  C
  C244     1.0000 0.96930  0.70910  0.90270  Biso   1.000  C
  C245     1.0000 0.97230  0.64000  0.91110  Biso   1.000  C
  H170     1.0000 0.93940  0.61240  0.89270  Biso   1.000  H
  C246     1.0000 0.02450  0.61570  0.94670  Biso   1.000  C
  H171     1.0000 0.02740  0.56990  0.95240  Biso   1.000  H
  C247     1.0000 0.07420  0.65350  0.97540  Biso   1.000  C
  H172     1.0000 0.10980  0.63410  0.99980  Biso   1.000  H
  C248     1.0000 0.06970  0.71950  0.96720  Biso   1.000  C
  H173     1.0000 0.10250  0.74690  0.98640  Biso   1.000  H
  C249     1.0000 0.91460  0.73260  0.85990  Biso   1.000  C
  C250     1.0000 0.95260  0.93160  0.79030  Biso   1.000  C
  H174     1.0000 0.92020  0.91380  0.79850  Biso   1.000  H
  C251     1.0000 0.96330  0.99700  0.79710  Biso   1.000  C
  H175     1.0000 0.93860  0.02340  0.81010  Biso   1.000  H
  C252     1.0000 0.00960  0.02580  0.78520  Biso   1.000  C
  C253     1.0000 0.04160  0.98470  0.76310  Biso   1.000  C
  H176     1.0000 0.07250  0.00180  0.75230  Biso   1.000  H
  C254     1.0000 0.02850  0.91950  0.75700  Biso   1.000  C
  H177     1.0000 0.05030  0.89270  0.74090  Biso   1.000  H
  C255     1.0000 0.07040  0.12730  0.80100  Biso   1.000  C
  C256     1.0000 0.06530  0.19560  0.79920  Biso   1.000  C
  H178     1.0000 0.02810  0.21560  0.79380  Biso   1.000  H
  C257     1.0000 0.11370  0.23330  0.80500  Biso   1.000  C
  H179     1.0000 0.10870  0.27940  0.80290  Biso   1.000  H
  C258     1.0000 0.17350  0.14460  0.81730  Biso   1.000  C
  H180     1.0000 0.21160  0.12640  0.82380  Biso   1.000  H
  C259     1.0000 0.95280  0.63160  0.75840  Biso   1.000  C
  H181     1.0000 0.91560  0.64980  0.73600  Biso   1.000  H
  C260     1.0000 0.96030  0.56570  0.75670  Biso   1.000  C
  H182     1.0000 0.92840  0.53890  0.73460  Biso   1.000  H
  C261     1.0000 0.01470  0.53820  0.78730  Biso   1.000  C
  C262     1.0000 0.05760  0.57850  0.82040  Biso   1.000  C
  H183     1.0000 0.09510  0.56140  0.84320  Biso   1.000  H
  C263     1.0000 0.04640  0.64420  0.82060  Biso   1.000  C
  H184     1.0000 0.07710  0.67150  0.84400  Biso   1.000  H
  C264     1.0000 0.99190  0.42160  0.75960  Biso   1.000  C
  C265     1.0000 0.93510  0.41570  0.75730  Biso   1.000  C
  H185     1.0000 0.91810  0.44960  0.77200  Biso   1.000  H
  C266     1.0000 0.90100  0.36060  0.73370  Biso   1.000  C
  H186     1.0000 0.86090  0.35880  0.73160  Biso   1.000  H
  C267     1.0000 0.97950  0.31570  0.71730  Biso   1.000  C
  H187     1.0000 0.99600  0.28060  0.70350  Biso   1.000  H
  C268     1.0000 0.01510  0.36890  0.73950  Biso   1.000  C
  H188     1.0000 0.05500  0.36960  0.74110  Biso   1.000  H
  C269     1.0000 0.80320  0.60400  0.65420  Biso   1.000  C
  H189     1.0000 0.81550  0.59490  0.69310  Biso   1.000  H
  C270     1.0000 0.80370  0.55310  0.61940  Biso   1.000  C
  H190     1.0000 0.81650  0.51080  0.63410  Biso   1.000  H
  C271     1.0000 0.78490  0.56470  0.56140  Biso   1.000  C
  C272     1.0000 0.76340  0.62760  0.54370  Biso   1.000  C
  H191     1.0000 0.74760  0.63770  0.50500  Biso   1.000  H
  C273     1.0000 0.76520  0.67470  0.58300  Biso   1.000  C
  H192     1.0000 0.74990  0.71680  0.56990  Biso   1.000  H
  C274     1.0000 0.80010  0.45650  0.52320  Biso   1.000  C
  C275     1.0000 0.84230  0.42670  0.56870  Biso   1.000  C
  H193     1.0000 0.86200  0.45090  0.60180  Biso   1.000  H
  C276     1.0000 0.85540  0.36200  0.56550  Biso   1.000  C
  H194     1.0000 0.88460  0.34270  0.59710  Biso   1.000  H
  C277     1.0000 0.79240  0.35490  0.47520  Biso   1.000  C
  H195     1.0000 0.77560  0.33020  0.44190  Biso   1.000  H
  C278     1.0000 0.77740  0.41870  0.47420  Biso   1.000  C
  H196     1.0000 0.75160  0.43790  0.44050  Biso   1.000  H
  C279     1.0000 0.76490  0.25940  0.60200  Biso   1.000  C
  C280     1.0000 0.71500  0.28840  0.55570  Biso   1.000  C
  C281     1.0000 0.68380  0.25180  0.50680  Biso   1.000  C
  C282     1.0000 0.64650  0.28560  0.46050  Biso   1.000  C
  H197     1.0000 0.62710  0.26240  0.42670  Biso   1.000  H
  C283     1.0000 0.63690  0.35250  0.46210  Biso   1.000  C
  H198     1.0000 0.61210  0.37510  0.42980  Biso   1.000  H
  C284     1.0000 0.66460  0.38560  0.51270  Biso   1.000  C
  H199     1.0000 0.65650  0.43060  0.51550  Biso   1.000  H
  C285     1.0000 0.70290  0.35370  0.55750  Biso   1.000  C
  H200     1.0000 0.72190  0.37720  0.59110  Biso   1.000  H
  C286     1.0000 0.68310  0.17930  0.50520  Biso   1.000  C
  C287     1.0000 0.69130  0.14320  0.46170  Biso   1.000  C
  C288     1.0000 0.67910  0.07660  0.45710  Biso   1.000  C
  H201     1.0000 0.68300  0.05270  0.42680  Biso   1.000  H
  C289     1.0000 0.66130  0.04500  0.49590  Biso   1.000  C
  H202     1.0000 0.65390  0.99930  0.49290  Biso   1.000  H
  C290     1.0000 0.65440  0.07960  0.53840  Biso   1.000  C
  H203     1.0000 0.64290  0.05770  0.56560  Biso   1.000  H
  C291     1.0000 0.66390  0.14540  0.54260  Biso   1.000  C
  H204     1.0000 0.65730  0.16870  0.57180  Biso   1.000  H
  C292     1.0000 0.71560  0.17300  0.42140  Biso   1.000  C
  C293     1.0000 0.95230  0.18290  0.62870  Biso   1.000  C
  C294     1.0000 0.99430  0.16450  0.59990  Biso   1.000  C
  C295     1.0000 0.00930  0.20750  0.56400  Biso   1.000  C
  C296     1.0000 0.04380  0.18490  0.53490  Biso   1.000  C
  H205     1.0000 0.05430  0.21380  0.51090  Biso   1.000  H
  C297     1.0000 0.06360  0.12070  0.54010  Biso   1.000  C
  H206     1.0000 0.08600  0.10550  0.51870  Biso   1.000  H
  C298     1.0000 0.05030  0.07870  0.57670  Biso   1.000  C
  H207     1.0000 0.06400  0.03490  0.58100  Biso   1.000  H
  C299     1.0000 0.01690  0.10160  0.60670  Biso   1.000  C
  H208     1.0000 0.00920  0.07350  0.63270  Biso   1.000  H
  C300     1.0000 0.99550  0.27930  0.56040  Biso   1.000  C
  C301     1.0000 0.95980  0.31040  0.51150  Biso   1.000  C
  C302     1.0000 0.95900  0.37910  0.50870  Biso   1.000  C
  H209     1.0000 0.93640  0.40000  0.47460  Biso   1.000  H
  C303     1.0000 0.98980  0.41620  0.55390  Biso   1.000  C
  H210     1.0000 0.98780  0.46250  0.55180  Biso   1.000  H
  C304     1.0000 0.02470  0.38510  0.60370  Biso   1.000  C
  H211     1.0000 0.04630  0.41020  0.63560  Biso   1.000  H
  C305     1.0000 0.02730  0.31870  0.60580  Biso   1.000  C
  H212     1.0000 0.05170  0.29840  0.63950  Biso   1.000  H
  C306     1.0000 0.91780  0.27480  0.46040  Biso   1.000  C
  C307     1.0000 0.17500  0.90690  0.76120  Biso   1.000  C
  C308     1.0000 0.21020  0.96560  0.75450  Biso   1.000  C
  C309     1.0000 0.26760  0.97980  0.79140  Biso   1.000  C
  C310     1.0000 0.29440  0.03750  0.78190  Biso   1.000  C
  H213     1.0000 0.33350  0.04860  0.80580  Biso   1.000  H
  C311     1.0000 0.26390  0.07810  0.73800  Biso   1.000  C
  H214     1.0000 0.28200  0.11770  0.73320  Biso   1.000  H
  C312     1.0000 0.20970  0.06310  0.70180  Biso   1.000  C
  H215     1.0000 0.19070  0.09120  0.67110  Biso   1.000  H
  C313     1.0000 0.18110  0.00660  0.70910  Biso   1.000  C
  H216     1.0000 0.14260  0.99600  0.68370  Biso   1.000  H
  C314     1.0000 0.30120  0.93930  0.84040  Biso   1.000  C
  C315     1.0000 0.30490  0.87160  0.83880  Biso   1.000  C
  C316     1.0000 0.33340  0.83660  0.88810  Biso   1.000  C
  H217     1.0000 0.33500  0.79030  0.88710  Biso   1.000  H
  C317     1.0000 0.35950  0.86950  0.93910  Biso   1.000  C
  H218     1.0000 0.37860  0.84600  0.97270  Biso   1.000  H
  C318     1.0000 0.35690  0.93760  0.93950  Biso   1.000  C
  H219     1.0000 0.37530  0.96060  0.97350  Biso   1.000  H
  C319     1.0000 0.32800  0.97130  0.89130  Biso   1.000  C
  H220     1.0000 0.32610  0.01760  0.89250  Biso   1.000  H
  C320     1.0000 0.28240  0.83200  0.78520  Biso   1.000  C
  C321     1.0000 0.24270  0.74110  0.93300  Biso   1.000  C
  H221     1.0000 0.24630  0.78690  0.93870  Biso   1.000  H
  C322     1.0000 0.27160  0.70200  0.97690  Biso   1.000  C
  H222     1.0000 0.29490  0.72050  0.01190  Biso   1.000  H
  C323     1.0000 0.26690  0.63400  0.97030  Biso   1.000  C
  C324     1.0000 0.23500  0.61090  0.91700  Biso   1.000  C
  H223     1.0000 0.23210  0.56540  0.90950  Biso   1.000  H
  C325     1.0000 0.20750  0.65530  0.87480  Biso   1.000  C
  H224     1.0000 0.18610  0.63850  0.83860  Biso   1.000  H
  C326     1.0000 0.30710  0.52890  0.01730  Biso   1.000  C
  C327     1.0000 0.30920  0.49240  0.06410  Biso   1.000  C
  H225     1.0000 0.30160  0.51240  0.09430  Biso   1.000  H
  C328     1.0000 0.32240  0.42700  0.06530  Biso   1.000  C
  H226     1.0000 0.32270  0.40200  0.09660  Biso   1.000  H
  C329     1.0000 0.33480  0.43200  0.98050  Biso   1.000  C
  H227     1.0000 0.34460  0.41120  0.95190  Biso   1.000  H
  C330     1.0000 0.32140  0.49720  0.97500  Biso   1.000  C
  H228     1.0000 0.32160  0.52060  0.94320  Biso   1.000  H
  Cd19     1.0000 0.51493  0.28197  0.71832  Biso   1.000  Cd
  Cd20     1.0000 0.70929  0.25588  0.80846  Biso   1.000  Cd
  Cd21     1.0000 0.66100  0.71480  0.97852  Biso   1.000  Cd
  Cd22     1.0000 0.62750  0.71637  0.81837  Biso   1.000  Cd
  Cd23     1.0000 0.34263  0.28921  0.68705  Biso   1.000  Cd
  Cd24     1.0000 0.25657  0.78360  0.67467  Biso   1.000  Cd
  O61      1.0000 0.60100  0.26600  0.80010  Biso   1.000  O
  O62      1.0000 0.66950  0.31430  0.87130  Biso   1.000  O
  O63      1.0000 0.44000  0.27500  0.75730  Biso   1.000  O
  O64      1.0000 0.36960  0.20480  0.75570  Biso   1.000  O
  O65      1.0000 0.41990  0.29140  0.64650  Biso   1.000  O
  O66      1.0000 0.34960  0.34770  0.58490  Biso   1.000  O
  O67      1.0000 0.58170  0.28060  0.67460  Biso   1.000  O
  O68      1.0000 0.63290  0.20850  0.64340  Biso   1.000  O
  O69      1.0000 0.70590  0.71250  0.90710  Biso   1.000  O
  O70      1.0000 0.71870  0.78460  0.85030  Biso   1.000  O
  O71      1.0000 0.74250  0.71450  0.06260  Biso   1.000  O
  O72      1.0000 0.80540  0.65490  0.12920  Biso   1.000  O
  O73      1.0000 0.58540  0.72810  0.89290  Biso   1.000  O
  O74      1.0000 0.54730  0.65380  0.82860  Biso   1.000  O
  O75      1.0000 0.60320  0.71910  0.03250  Biso   1.000  O
  O76      1.0000 0.59450  0.80260  0.08520  Biso   1.000  O
  O77      1.0000 0.32020  0.39230  0.68930  Biso   1.000  O
  O78      1.0000 0.35660  0.37730  0.78110  Biso   1.000  O
  O79      1.0000 0.25080  0.28370  0.71880  Biso   1.000  O
  O80      1.0000 0.20030  0.35060  0.75290  Biso   1.000  O
  N37      1.0000 0.51380  0.39130  0.72750  Biso   1.000  N
  N38      1.0000 0.47970  0.59160  0.70460  Biso   1.000  N
  H229     1.0000 0.50940  0.61400  0.70120  Biso   1.000  H
  N39      1.0000 0.33200  0.70910  0.68630  Biso   1.000  N
  N40      1.0000 0.50470  0.17190  0.70990  Biso   1.000  N
  N41      1.0000 0.47090  0.97320  0.71680  Biso   1.000  N
  H230     1.0000 0.43280  0.96370  0.70240  Biso   1.000  H
  N42      1.0000 0.57690  0.81050  0.78590  Biso   1.000  N
  N43      1.0000 0.71310  0.16490  0.86210  Biso   1.000  N
  N44      1.0000 0.71960  0.01970  0.98010  Biso   1.000  N
  H231     1.0000 0.73810  0.03400  0.01430  Biso   1.000  H
  N45      1.0000 0.67020  0.82440  0.97930  Biso   1.000  N
  N46      1.0000 0.29100  0.21940  0.61860  Biso   1.000  N
  N47      1.0000 0.20560  0.09580  0.48350  Biso   1.000  N
  H232     1.0000 0.19480  0.11550  0.45090  Biso   1.000  H
  N48      1.0000 0.16510  0.89630  0.47600  Biso   1.000  N
  C331     1.0000 0.61570  0.30100  0.84340  Biso   1.000  C
  C332     1.0000 0.37250  0.60250  0.68760  Biso   1.000  C
  H233     1.0000 0.36550  0.55680  0.68340  Biso   1.000  H
  C333     1.0000 0.56950  0.32880  0.86200  Biso   1.000  C
  C334     1.0000 0.57230  0.39540  0.87490  Biso   1.000  C
  H234     1.0000 0.60420  0.42050  0.87210  Biso   1.000  H
  C335     1.0000 0.53070  0.42570  0.89130  Biso   1.000  C
  H235     1.0000 0.53380  0.47090  0.90010  Biso   1.000  H
  C336     1.0000 0.48420  0.38930  0.89490  Biso   1.000  C
  H236     1.0000 0.45440  0.40980  0.90530  Biso   1.000  H
  C337     1.0000 0.48050  0.32420  0.88350  Biso   1.000  C
  H237     1.0000 0.44860  0.29990  0.88730  Biso   1.000  H
  C338     1.0000 0.52220  0.29200  0.86650  Biso   1.000  C
  C339     1.0000 0.51820  0.21960  0.86050  Biso   1.000  C
  C340     1.0000 0.46740  0.18810  0.82250  Biso   1.000  C
  C341     1.0000 0.46120  0.12130  0.82510  Biso   1.000  C
  H238     1.0000 0.42670  0.10030  0.80020  Biso   1.000  H
  C342     1.0000 0.50540  0.08470  0.86410  Biso   1.000  C
  H239     1.0000 0.50040  0.03890  0.86620  Biso   1.000  H
  C343     1.0000 0.55600  0.11350  0.89950  Biso   1.000  C
  H240     1.0000 0.58670  0.08790  0.92500  Biso   1.000  H
  C344     1.0000 0.56190  0.18030  0.89750  Biso   1.000  C
  H241     1.0000 0.59690  0.20030  0.92240  Biso   1.000  H
  C345     1.0000 0.42280  0.22530  0.77660  Biso   1.000  C
  C346     1.0000 0.40260  0.33010  0.60570  Biso   1.000  C
  C347     1.0000 0.44670  0.35920  0.58380  Biso   1.000  C
  C348     1.0000 0.48880  0.32050  0.57230  Biso   1.000  C
  C349     1.0000 0.53160  0.35200  0.55740  Biso   1.000  C
  H242     1.0000 0.56040  0.32650  0.54930  Biso   1.000  H
  C350     1.0000 0.53410  0.41710  0.55400  Biso   1.000  C
  H243     1.0000 0.56550  0.43670  0.54530  Biso   1.000  H
  C351     1.0000 0.49210  0.45600  0.56300  Biso   1.000  C
  H244     1.0000 0.49260  0.50190  0.55850  Biso   1.000  H
  C352     1.0000 0.44820  0.42600  0.57900  Biso   1.000  C
  H245     1.0000 0.41940  0.45200  0.58660  Biso   1.000  H
  C353     1.0000 0.48410  0.24740  0.57010  Biso   1.000  C
  C354     1.0000 0.53070  0.20910  0.59730  Biso   1.000  C
  C355     1.0000 0.52770  0.14000  0.58890  Biso   1.000  C
  H246     1.0000 0.56060  0.11240  0.60730  Biso   1.000  H
  C356     1.0000 0.47550  0.11570  0.55330  Biso   1.000  C
  H247     1.0000 0.47260  0.06990  0.54760  Biso   1.000  H
  C357     1.0000 0.42580  0.15350  0.52460  Biso   1.000  C
  H248     1.0000 0.39020  0.13410  0.50020  Biso   1.000  H
  C358     1.0000 0.43030  0.21950  0.53280  Biso   1.000  C
  H249     1.0000 0.39750  0.24690  0.51360  Biso   1.000  H
  C359     1.0000 0.58540  0.23260  0.64010  Biso   1.000  C
  C360     1.0000 0.54740  0.43160  0.70970  Biso   1.000  C
  H250     1.0000 0.57980  0.41380  0.70150  Biso   1.000  H
  C361     1.0000 0.53670  0.49700  0.70290  Biso   1.000  C
  H251     1.0000 0.56140  0.52340  0.68990  Biso   1.000  H
  C362     1.0000 0.49040  0.52580  0.71480  Biso   1.000  C
  C363     1.0000 0.45840  0.48470  0.73690  Biso   1.000  C
  H252     1.0000 0.42750  0.50180  0.74770  Biso   1.000  H
  C364     1.0000 0.47150  0.41950  0.74300  Biso   1.000  C
  H253     1.0000 0.44970  0.39270  0.75910  Biso   1.000  H
  C365     1.0000 0.42960  0.62730  0.69900  Biso   1.000  C
  C366     1.0000 0.43470  0.69560  0.70080  Biso   1.000  C
  H254     1.0000 0.47190  0.71560  0.70620  Biso   1.000  H
  C367     1.0000 0.38630  0.73330  0.69500  Biso   1.000  C
  H255     1.0000 0.39130  0.77940  0.69710  Biso   1.000  H
  C368     1.0000 0.32650  0.64460  0.68270  Biso   1.000  C
  H256     1.0000 0.28840  0.62640  0.67620  Biso   1.000  H
  C369     1.0000 0.54720  0.13160  0.74160  Biso   1.000  C
  H257     1.0000 0.58440  0.14980  0.76400  Biso   1.000  H
  C370     1.0000 0.53970  0.06570  0.74330  Biso   1.000  C
  H258     1.0000 0.57160  0.03890  0.76540  Biso   1.000  H
  C371     1.0000 0.48530  0.03820  0.71270  Biso   1.000  C
  C372     1.0000 0.44240  0.07850  0.67960  Biso   1.000  C
  H259     1.0000 0.40490  0.06140  0.65680  Biso   1.000  H
  C373     1.0000 0.45360  0.14420  0.67940  Biso   1.000  C
  H260     1.0000 0.42290  0.17150  0.65600  Biso   1.000  H
  C374     1.0000 0.50810  0.92160  0.74040  Biso   1.000  C
  C375     1.0000 0.56490  0.91570  0.74270  Biso   1.000  C
  H261     1.0000 0.58190  0.94960  0.72800  Biso   1.000  H
  C376     1.0000 0.59900  0.86060  0.76630  Biso   1.000  C
  H262     1.0000 0.63910  0.85880  0.76840  Biso   1.000  H
  C377     1.0000 0.52050  0.81570  0.78270  Biso   1.000  C
  H263     1.0000 0.50400  0.78060  0.79650  Biso   1.000  H
  C378     1.0000 0.48490  0.86890  0.76050  Biso   1.000  C
  H264     1.0000 0.44500  0.86960  0.75890  Biso   1.000  H
  C379     1.0000 0.69680  0.10400  0.84580  Biso   1.000  C
  H265     1.0000 0.68450  0.09490  0.80690  Biso   1.000  H
  C380     1.0000 0.69630  0.05310  0.88060  Biso   1.000  C
  H266     1.0000 0.68350  0.01080  0.86590  Biso   1.000  H
  C381     1.0000 0.71510  0.06470  0.93860  Biso   1.000  C
  C382     1.0000 0.73660  0.12760  0.95630  Biso   1.000  C
  H267     1.0000 0.75240  0.13770  0.99500  Biso   1.000  H
  C383     1.0000 0.73480  0.17470  0.91700  Biso   1.000  C
  H268     1.0000 0.75010  0.21680  0.93010  Biso   1.000  H
  C384     1.0000 0.69990  0.95650  0.97680  Biso   1.000  C
  C385     1.0000 0.65770  0.92670  0.93130  Biso   1.000  C
  H269     1.0000 0.63800  0.95090  0.89820  Biso   1.000  H
  C386     1.0000 0.64460  0.86200  0.93450  Biso   1.000  C
  H270     1.0000 0.61540  0.84270  0.90290  Biso   1.000  H
  C387     1.0000 0.70760  0.85490  0.02480  Biso   1.000  C
  H271     1.0000 0.72440  0.83020  0.05810  Biso   1.000  H
  C388     1.0000 0.72260  0.91870  0.02580  Biso   1.000  C
  H272     1.0000 0.74840  0.93790  0.05950  Biso   1.000  H
  C389     1.0000 0.73510  0.75940  0.89800  Biso   1.000  C
  C390     1.0000 0.78500  0.78840  0.94430  Biso   1.000  C
  C391     1.0000 0.81620  0.75180  0.99320  Biso   1.000  C
  C392     1.0000 0.85350  0.78560  0.03950  Biso   1.000  C
  H273     1.0000 0.87290  0.76240  0.07330  Biso   1.000  H
  C393     1.0000 0.86310  0.85250  0.03790  Biso   1.000  C
  H274     1.0000 0.88790  0.87510  0.07020  Biso   1.000  H
  C394     1.0000 0.83540  0.88560  0.98730  Biso   1.000  C
  H275     1.0000 0.84350  0.93060  0.98450  Biso   1.000  H
  C395     1.0000 0.79710  0.85370  0.94250  Biso   1.000  C
  H276     1.0000 0.77810  0.87720  0.90890  Biso   1.000  H
  C396     1.0000 0.81690  0.67930  0.99480  Biso   1.000  C
  C397     1.0000 0.80870  0.64320  0.03830  Biso   1.000  C
  C398     1.0000 0.82090  0.57660  0.04290  Biso   1.000  C
  H277     1.0000 0.81700  0.55270  0.07320  Biso   1.000  H
  C399     1.0000 0.83870  0.54500  0.00410  Biso   1.000  C
  H278     1.0000 0.84610  0.49930  0.00710  Biso   1.000  H
  C400     1.0000 0.84560  0.57960  0.96160  Biso   1.000  C
  H279     1.0000 0.85710  0.55770  0.93440  Biso   1.000  H
  C401     1.0000 0.83610  0.64540  0.95740  Biso   1.000  C
  H280     1.0000 0.84270  0.66870  0.92820  Biso   1.000  H
  C402     1.0000 0.78440  0.67300  0.07860  Biso   1.000  C
  C403     1.0000 0.54770  0.68290  0.87130  Biso   1.000  C
  C404     1.0000 0.50570  0.66450  0.90010  Biso   1.000  C
  C405     1.0000 0.49070  0.70750  0.93600  Biso   1.000  C
  C406     1.0000 0.45620  0.68490  0.96510  Biso   1.000  C
  H281     1.0000 0.44570  0.71380  0.98910  Biso   1.000  H
  C407     1.0000 0.43640  0.62070  0.95990  Biso   1.000  C
  H282     1.0000 0.41400  0.60550  0.98130  Biso   1.000  H
  C408     1.0000 0.44970  0.57870  0.92330  Biso   1.000  C
  H283     1.0000 0.43600  0.53490  0.91900  Biso   1.000  H
  C409     1.0000 0.48310  0.60160  0.89330  Biso   1.000  C
  H284     1.0000 0.49080  0.57350  0.86730  Biso   1.000  H
  C410     1.0000 0.50450  0.77930  0.93960  Biso   1.000  C
  C411     1.0000 0.54020  0.81040  0.98850  Biso   1.000  C
  C412     1.0000 0.54100  0.87910  0.99130  Biso   1.000  C
  H285     1.0000 0.56360  0.90000  0.02540  Biso   1.000  H
  C413     1.0000 0.51020  0.91620  0.94610  Biso   1.000  C
  H286     1.0000 0.51220  0.96250  0.94820  Biso   1.000  H
  C414     1.0000 0.47530  0.88510  0.89630  Biso   1.000  C
  H287     1.0000 0.45370  0.91020  0.86440  Biso   1.000  H
  C415     1.0000 0.47270  0.81870  0.89420  Biso   1.000  C
  H288     1.0000 0.44830  0.79840  0.86050  Biso   1.000  H
  C416     1.0000 0.58220  0.77480  0.03960  Biso   1.000  C
  C417     1.0000 0.32500  0.40690  0.73880  Biso   1.000  C
  C418     1.0000 0.28980  0.46560  0.74550  Biso   1.000  C
  C419     1.0000 0.23240  0.47980  0.70860  Biso   1.000  C
  C420     1.0000 0.20560  0.53750  0.71810  Biso   1.000  C
  H289     1.0000 0.16650  0.54860  0.69420  Biso   1.000  H
  C421     1.0000 0.23610  0.57810  0.76200  Biso   1.000  C
  H290     1.0000 0.21800  0.61770  0.76680  Biso   1.000  H
  C422     1.0000 0.29030  0.56310  0.79820  Biso   1.000  C
  H291     1.0000 0.30930  0.59120  0.82890  Biso   1.000  H
  C423     1.0000 0.31890  0.50660  0.79090  Biso   1.000  C
  H292     1.0000 0.35740  0.49600  0.81630  Biso   1.000  H
  C424     1.0000 0.19880  0.43930  0.65960  Biso   1.000  C
  C425     1.0000 0.19510  0.37160  0.66120  Biso   1.000  C
  C426     1.0000 0.16660  0.33660  0.61190  Biso   1.000  C
  H293     1.0000 0.16500  0.29030  0.61290  Biso   1.000  H
  C427     1.0000 0.14050  0.36950  0.56090  Biso   1.000  C
  H294     1.0000 0.12140  0.34600  0.52730  Biso   1.000  H
  C428     1.0000 0.14310  0.43760  0.56050  Biso   1.000  C
  H295     1.0000 0.12470  0.46060  0.52650  Biso   1.000  H
  C429     1.0000 0.17200  0.47130  0.60870  Biso   1.000  C
  H296     1.0000 0.17390  0.51760  0.60750  Biso   1.000  H
  C430     1.0000 0.21760  0.33200  0.71480  Biso   1.000  C
  C431     1.0000 0.25730  0.24110  0.56700  Biso   1.000  C
  H297     1.0000 0.25370  0.28690  0.56130  Biso   1.000  H
  C432     1.0000 0.22840  0.20200  0.52310  Biso   1.000  C
  H298     1.0000 0.20510  0.22050  0.48810  Biso   1.000  H
  C433     1.0000 0.23310  0.13400  0.52970  Biso   1.000  C
  C434     1.0000 0.26500  0.11090  0.58300  Biso   1.000  C
  H299     1.0000 0.26790  0.06540  0.59050  Biso   1.000  H
  C435     1.0000 0.29250  0.15530  0.62520  Biso   1.000  C
  H300     1.0000 0.31390  0.13850  0.66140  Biso   1.000  H
  C436     1.0000 0.19290  0.02890  0.48270  Biso   1.000  C
  C437     1.0000 0.19080  0.99240  0.43590  Biso   1.000  C
  H301     1.0000 0.19840  0.01240  0.40570  Biso   1.000  H
  C438     1.0000 0.17760  0.92700  0.43470  Biso   1.000  C
  H302     1.0000 0.17730  0.90200  0.40340  Biso   1.000  H
  C439     1.0000 0.16520  0.93200  0.51950  Biso   1.000  C
  H303     1.0000 0.15540  0.91120  0.54810  Biso   1.000  H
  C440     1.0000 0.17860  0.99720  0.52500  Biso   1.000  C
  H304     1.0000 0.17840  0.02060  0.55680  Biso   1.000  H
