data_image0
_cell_length_a       27.067
_cell_length_b       27.067
_cell_length_c       63.536
_cell_angle_alpha    90
_cell_angle_beta     90
_cell_angle_gamma    120

_symmetry_space_group_name_H-M    "P 1"
_symmetry_int_tables_number       1

loop_
  _symmetry_equiv_pos_as_xyz
  'x, y, z'

loop_
  _atom_site_label
  _atom_site_occupancy
  _atom_site_fract_x
  _atom_site_fract_y
  _atom_site_fract_z
  _atom_site_thermal_displace_type
  _atom_site_B_iso_or_equiv
  _atom_site_type_symbol
  Cu1      1.0000 0.20649  0.83713  0.36729  Biso   1.000  Cu
  C1       1.0000 0.13440  0.77770  0.43020  Biso   1.000  C
  H1       1.0000 0.10410  0.77130  0.42040  Biso   1.000  H
  H2       1.0000 0.12090  0.77710  0.44440  Biso   1.000  H
  C2       1.0000 0.14930  0.73090  0.42770  Biso   1.000  C
  H3       1.0000 0.17070  0.73780  0.41480  Biso   1.000  H
  H4       1.0000 0.11400  0.69490  0.42610  Biso   1.000  H
  C3       1.0000 0.18070  0.72510  0.44410  Biso   1.000  C
  H5       1.0000 0.18310  0.69110  0.44130  Biso   1.000  H
  H6       1.0000 0.21920  0.75740  0.44330  Biso   1.000  H
  C4       1.0000 0.07850  0.56500  0.58650  Biso   1.000  C
  H7       1.0000 0.11900  0.59070  0.58670  Biso   1.000  H
  H8       1.0000 0.06870  0.53580  0.59690  Biso   1.000  H
  H9       1.0000 0.05910  0.58560  0.58950  Biso   1.000  H
  C5       1.0000 0.00850  0.50040  0.55910  Biso   1.000  C
  C6       1.0000 0.06560  0.39730  0.48630  Biso   1.000  C
  C7       1.0000 0.01600  0.28940  0.48060  Biso   1.000  C
  H10      1.0000 0.04870  0.29660  0.47240  Biso   1.000  H
  H11      1.0000 0.01180  0.26460  0.49210  Biso   1.000  H
  H12      1.0000 0.98250  0.27150  0.47200  Biso   1.000  H
  C8       1.0000 0.09160  0.67350  0.34590  Biso   1.000  C
  C9       1.0000 0.17140  0.87410  0.40640  Biso   1.000  C
  C10      1.0000 0.26980  0.72090  0.49100  Biso   1.000  C
  H13      1.0000 0.27030  0.75290  0.48430  Biso   1.000  H
  H14      1.0000 0.28010  0.72970  0.50550  Biso   1.000  H
  H15      1.0000 0.29660  0.71280  0.48420  Biso   1.000  H
  C11      1.0000 0.02310  0.62760  0.37650  Biso   1.000  C
  H16      1.0000 0.02020  0.64110  0.39010  Biso   1.000  H
  H17      1.0000 0.02870  0.59540  0.37800  Biso   1.000  H
  H18      1.0000 0.98870  0.61640  0.36870  Biso   1.000  H
  C12      1.0000 0.01100  0.61900  0.31780  Biso   1.000  C
  H19      1.0000 0.02290  0.63140  0.30350  Biso   1.000  H
  H20      1.0000 0.98260  0.57850  0.31660  Biso   1.000  H
  C13      1.0000 0.06540  0.47460  0.42250  Biso   1.000  C
  H21      1.0000 0.10070  0.48850  0.41460  Biso   1.000  H
  H22      1.0000 0.03490  0.44610  0.41390  Biso   1.000  H
  C14      1.0000 0.06960  0.44700  0.44170  Biso   1.000  C
  H23      1.0000 0.04330  0.40680  0.43920  Biso   1.000  H
  H24      1.0000 0.05170  0.45850  0.45230  Biso   1.000  H
  C15      1.0000 0.10640  0.44770  0.45010  Biso   1.000  C
  H25      1.0000 0.12550  0.44100  0.43850  Biso   1.000  H
  H26      1.0000 0.12980  0.48810  0.45310  Biso   1.000  H
  C16      1.0000 0.97400  0.67150  0.30380  Biso   1.000  C
  H27      1.0000 0.93520  0.64460  0.29950  Biso   1.000  H
  H28      1.0000 0.99770  0.66560  0.29390  Biso   1.000  H
  C17      1.0000 0.12430  0.91030  0.43090  Biso   1.000  C
  H29      1.0000 0.13600  0.89400  0.44190  Biso   1.000  H
  H30      1.0000 0.14100  0.95060  0.43330  Biso   1.000  H
  H31      1.0000 0.08350  0.89280  0.43100  Biso   1.000  H
  C18      1.0000 0.97950  0.64290  0.32270  Biso   1.000  C
  H32      1.0000 0.99790  0.67050  0.33390  Biso   1.000  H
  H33      1.0000 0.94200  0.61400  0.32750  Biso   1.000  H
  C19      1.0000 0.41060  0.89210  0.33600  Biso   1.000  C
  H34      1.0000 0.43170  0.92120  0.34620  Biso   1.000  H
  H35      1.0000 0.41410  0.85920  0.33900  Biso   1.000  H
  H36      1.0000 0.42550  0.90620  0.32220  Biso   1.000  H
  C20      1.0000 0.16550  0.66580  0.48150  Biso   1.000  C
  N1       1.0000 0.09700  0.55020  0.54930  Biso   1.000  N
  N2       1.0000 0.01260  0.48790  0.53920  Biso   1.000  N
  N3       1.0000 0.06130  0.53830  0.56520  Biso   1.000  N
  N4       1.0000 0.06900  0.51960  0.53400  Biso   1.000  N
  N5       1.0000 0.00050  0.39530  0.50570  Biso   1.000  N
  N6       1.0000 0.05220  0.43010  0.49710  Biso   1.000  N
  N7       1.0000 0.98240  0.34320  0.50080  Biso   1.000  N
  N8       1.0000 0.02380  0.34370  0.48890  Biso   1.000  N
  N9       1.0000 0.12410  0.61200  0.48390  Biso   1.000  N
  C21      1.0000 0.32290  0.89020  0.35100  Biso   1.000  C
  N10      1.0000 0.14810  0.58560  0.49400  Biso   1.000  N
  N11      1.0000 0.20040  0.61980  0.49790  Biso   1.000  N
  N12      1.0000 0.17880  0.87580  0.38580  Biso   1.000  N
  N13      1.0000 0.26370  0.82740  0.32960  Biso   1.000  N
  N14      1.0000 0.14450  0.75520  0.36100  Biso   1.000  N
  N15      1.0000 0.13150  0.91960  0.39280  Biso   1.000  N
  N16      1.0000 0.07150  0.67300  0.36520  Biso   1.000  N
  N17      1.0000 0.13740  0.72520  0.34320  Biso   1.000  N
  N18      1.0000 0.26810  0.86010  0.34650  Biso   1.000  N
  N19      1.0000 0.10420  0.72250  0.37450  Biso   1.000  N
  N20      1.0000 0.15350  0.90410  0.37780  Biso   1.000  N
  N21      1.0000 0.31290  0.83610  0.32360  Biso   1.000  N
  N22      1.0000 0.21190  0.67050  0.48950  Biso   1.000  N
  N23      1.0000 0.14310  0.90050  0.41050  Biso   1.000  N
  N24      1.0000 0.35100  0.87650  0.33680  Biso   1.000  N
  S1       1.0000 0.12640  0.41800  0.47145  Biso   1.000  S
  S2       1.0000 0.94720  0.46820  0.57357  Biso   1.000  S
  S3       1.0000 0.15600  0.72030  0.47078  Biso   1.000  S
  S4       1.0000 0.19720  0.84660  0.42492  Biso   1.000  S
  S5       1.0000 0.06630  0.61800  0.32809  Biso   1.000  S
  S6       1.0000 0.35300  0.93760  0.37141  Biso   1.000  S
  Cu2      1.0000 0.95584  0.42295  0.52301  Biso   1.000  Cu
  Cu3      1.0000 0.18967  0.75694  0.31907  Biso   1.000  Cu
  Cu4      1.0000 0.10122  0.50942  0.50580  Biso   1.000  Cu
  Cu5      1.0000 0.87316  0.17046  0.70062  Biso   1.000  Cu
  C22      1.0000 0.80107  0.11103  0.76353  Biso   1.000  C
  H37      1.0000 0.77077  0.10463  0.75373  Biso   1.000  H
  H38      1.0000 0.78757  0.11043  0.77773  Biso   1.000  H
  C23      1.0000 0.81597  0.06423  0.76103  Biso   1.000  C
  H39      1.0000 0.83737  0.07113  0.74813  Biso   1.000  H
  H40      1.0000 0.78067  0.02823  0.75943  Biso   1.000  H
  C24      1.0000 0.84737  0.05843  0.77743  Biso   1.000  C
  H41      1.0000 0.84977  0.02443  0.77463  Biso   1.000  H
  H42      1.0000 0.88587  0.09073  0.77663  Biso   1.000  H
  C25      1.0000 0.74517  0.89833  0.91983  Biso   1.000  C
  H43      1.0000 0.78567  0.92403  0.92003  Biso   1.000  H
  H44      1.0000 0.73537  0.86913  0.93023  Biso   1.000  H
  H45      1.0000 0.72577  0.91893  0.92283  Biso   1.000  H
  C26      1.0000 0.67517  0.83373  0.89243  Biso   1.000  C
  C27      1.0000 0.73227  0.73063  0.81963  Biso   1.000  C
  C28      1.0000 0.68267  0.62273  0.81393  Biso   1.000  C
  H46      1.0000 0.71537  0.62993  0.80573  Biso   1.000  H
  H47      1.0000 0.67847  0.59793  0.82543  Biso   1.000  H
  H48      1.0000 0.64917  0.60483  0.80533  Biso   1.000  H
  C29      1.0000 0.75827  0.00683  0.67923  Biso   1.000  C
  C30      1.0000 0.83807  0.20743  0.73973  Biso   1.000  C
  C31      1.0000 0.93647  0.05423  0.82433  Biso   1.000  C
  H49      1.0000 0.93697  0.08623  0.81763  Biso   1.000  H
  H50      1.0000 0.94677  0.06303  0.83883  Biso   1.000  H
  H51      1.0000 0.96327  0.04613  0.81753  Biso   1.000  H
  C32      1.0000 0.68977  0.96093  0.70983  Biso   1.000  C
  H52      1.0000 0.68687  0.97443  0.72343  Biso   1.000  H
  H53      1.0000 0.69537  0.92873  0.71133  Biso   1.000  H
  H54      1.0000 0.65537  0.94973  0.70203  Biso   1.000  H
  C33      1.0000 0.67767  0.95233  0.65113  Biso   1.000  C
  H55      1.0000 0.68957  0.96473  0.63683  Biso   1.000  H
  H56      1.0000 0.64927  0.91183  0.64993  Biso   1.000  H
  C34      1.0000 0.73207  0.80793  0.75583  Biso   1.000  C
  H57      1.0000 0.76737  0.82183  0.74793  Biso   1.000  H
  H58      1.0000 0.70157  0.77943  0.74723  Biso   1.000  H
  C35      1.0000 0.73627  0.78033  0.77503  Biso   1.000  C
  H59      1.0000 0.70997  0.74013  0.77253  Biso   1.000  H
  H60      1.0000 0.71837  0.79183  0.78563  Biso   1.000  H
  C36      1.0000 0.77307  0.78103  0.78343  Biso   1.000  C
  H61      1.0000 0.79217  0.77433  0.77183  Biso   1.000  H
  H62      1.0000 0.79647  0.82143  0.78643  Biso   1.000  H
  C37      1.0000 0.64067  0.00483  0.63713  Biso   1.000  C
  H63      1.0000 0.60187  0.97793  0.63283  Biso   1.000  H
  H64      1.0000 0.66437  0.99893  0.62723  Biso   1.000  H
  C38      1.0000 0.79097  0.24363  0.76423  Biso   1.000  C
  H65      1.0000 0.80267  0.22733  0.77523  Biso   1.000  H
  H66      1.0000 0.80767  0.28393  0.76663  Biso   1.000  H
  H67      1.0000 0.75017  0.22613  0.76433  Biso   1.000  H
  C39      1.0000 0.64617  0.97623  0.65603  Biso   1.000  C
  H68      1.0000 0.66457  0.00383  0.66723  Biso   1.000  H
  H69      1.0000 0.60867  0.94733  0.66083  Biso   1.000  H
  C40      1.0000 0.07727  0.22543  0.66933  Biso   1.000  C
  H70      1.0000 0.09837  0.25453  0.67953  Biso   1.000  H
  H71      1.0000 0.08077  0.19253  0.67233  Biso   1.000  H
  H72      1.0000 0.09217  0.23953  0.65553  Biso   1.000  H
  C41      1.0000 0.83217  0.99913  0.81483  Biso   1.000  C
  N25      1.0000 0.76367  0.88353  0.88263  Biso   1.000  N
  N26      1.0000 0.67927  0.82123  0.87253  Biso   1.000  N
  N27      1.0000 0.72797  0.87163  0.89853  Biso   1.000  N
  N28      1.0000 0.73567  0.85293  0.86733  Biso   1.000  N
  N29      1.0000 0.66717  0.72863  0.83903  Biso   1.000  N
  N30      1.0000 0.71887  0.76343  0.83043  Biso   1.000  N
  N31      1.0000 0.64907  0.67653  0.83413  Biso   1.000  N
  N32      1.0000 0.69047  0.67703  0.82223  Biso   1.000  N
  N33      1.0000 0.79077  0.94533  0.81723  Biso   1.000  N
  C42      1.0000 0.98957  0.22353  0.68433  Biso   1.000  C
  N34      1.0000 0.81477  0.91893  0.82733  Biso   1.000  N
  N35      1.0000 0.86707  0.95313  0.83123  Biso   1.000  N
  N36      1.0000 0.84547  0.20913  0.71913  Biso   1.000  N
  N37      1.0000 0.93037  0.16073  0.66293  Biso   1.000  N
  N38      1.0000 0.81117  0.08853  0.69433  Biso   1.000  N
  N39      1.0000 0.79817  0.25293  0.72613  Biso   1.000  N
  N40      1.0000 0.73817  0.00633  0.69853  Biso   1.000  N
  N41      1.0000 0.80407  0.05853  0.67653  Biso   1.000  N
  N42      1.0000 0.93477  0.19343  0.67983  Biso   1.000  N
  N43      1.0000 0.77087  0.05583  0.70783  Biso   1.000  N
  N44      1.0000 0.82017  0.23743  0.71113  Biso   1.000  N
  N45      1.0000 0.97957  0.16943  0.65693  Biso   1.000  N
  N46      1.0000 0.87857  0.00383  0.82283  Biso   1.000  N
  N47      1.0000 0.80977  0.23383  0.74383  Biso   1.000  N
  N48      1.0000 0.01767  0.20983  0.67013  Biso   1.000  N
  S7       1.0000 0.79307  0.75133  0.80478  Biso   1.000  S
  S8       1.0000 0.61387  0.80153  0.90690  Biso   1.000  S
  S9       1.0000 0.82267  0.05363  0.80411  Biso   1.000  S
  S10      1.0000 0.86387  0.17993  0.75825  Biso   1.000  S
  S11      1.0000 0.73297  0.95133  0.66142  Biso   1.000  S
  S12      1.0000 0.01967  0.27093  0.70474  Biso   1.000  S
  Cu6      1.0000 0.62251  0.75628  0.85634  Biso   1.000  Cu
  Cu7      1.0000 0.85634  0.09027  0.65240  Biso   1.000  Cu
  Cu8      1.0000 0.76789  0.84275  0.83913  Biso   1.000  Cu
  Cu9      1.0000 0.53982  0.50380  0.03396  Biso   1.000  Cu
  C43      1.0000 0.46773  0.44437  0.09687  Biso   1.000  C
  H73      1.0000 0.43743  0.43797  0.08707  Biso   1.000  H
  H74      1.0000 0.45423  0.44377  0.11107  Biso   1.000  H
  C44      1.0000 0.48263  0.39757  0.09437  Biso   1.000  C
  H75      1.0000 0.50403  0.40447  0.08147  Biso   1.000  H
  H76      1.0000 0.44733  0.36157  0.09277  Biso   1.000  H
  C45      1.0000 0.51403  0.39177  0.11077  Biso   1.000  C
  H77      1.0000 0.51643  0.35777  0.10797  Biso   1.000  H
  H78      1.0000 0.55253  0.42407  0.10997  Biso   1.000  H
  C46      1.0000 0.41183  0.23167  0.25317  Biso   1.000  C
  H79      1.0000 0.45233  0.25737  0.25337  Biso   1.000  H
  H80      1.0000 0.40203  0.20247  0.26357  Biso   1.000  H
  H81      1.0000 0.39243  0.25227  0.25617  Biso   1.000  H
  C47      1.0000 0.34183  0.16707  0.22577  Biso   1.000  C
  C48      1.0000 0.39893  0.06397  0.15297  Biso   1.000  C
  C49      1.0000 0.34933  0.95607  0.14727  Biso   1.000  C
  H82      1.0000 0.38203  0.96327  0.13907  Biso   1.000  H
  H83      1.0000 0.34513  0.93127  0.15877  Biso   1.000  H
  H84      1.0000 0.31583  0.93817  0.13867  Biso   1.000  H
  C50      1.0000 0.42493  0.34017  0.01257  Biso   1.000  C
  C51      1.0000 0.50473  0.54077  0.07307  Biso   1.000  C
  C52      1.0000 0.60313  0.38757  0.15767  Biso   1.000  C
  H85      1.0000 0.60363  0.41957  0.15097  Biso   1.000  H
  H86      1.0000 0.61343  0.39637  0.17217  Biso   1.000  H
  H87      1.0000 0.62993  0.37947  0.15087  Biso   1.000  H
  C53      1.0000 0.35643  0.29427  0.04317  Biso   1.000  C
  H88      1.0000 0.35353  0.30777  0.05677  Biso   1.000  H
  H89      1.0000 0.36203  0.26207  0.04467  Biso   1.000  H
  H90      1.0000 0.32203  0.28307  0.03537  Biso   1.000  H
  C54      1.0000 0.34433  0.28567  0.98447  Biso   1.000  C
  H91      1.0000 0.35623  0.29807  0.97017  Biso   1.000  H
  H92      1.0000 0.31593  0.24517  0.98327  Biso   1.000  H
  C55      1.0000 0.39873  0.14127  0.08917  Biso   1.000  C
  H93      1.0000 0.43403  0.15517  0.08127  Biso   1.000  H
  H94      1.0000 0.36823  0.11277  0.08057  Biso   1.000  H
  C56      1.0000 0.40293  0.11367  0.10837  Biso   1.000  C
  H95      1.0000 0.37663  0.07347  0.10587  Biso   1.000  H
  H96      1.0000 0.38503  0.12517  0.11897  Biso   1.000  H
  C57      1.0000 0.43973  0.11437  0.11677  Biso   1.000  C
  H97      1.0000 0.45883  0.10767  0.10517  Biso   1.000  H
  H98      1.0000 0.46313  0.15477  0.11977  Biso   1.000  H
  C58      1.0000 0.30733  0.33817  0.97047  Biso   1.000  C
  H99      1.0000 0.26853  0.31127  0.96617  Biso   1.000  H
  H100     1.0000 0.33103  0.33227  0.96057  Biso   1.000  H
  C59      1.0000 0.45763  0.57697  0.09757  Biso   1.000  C
  H101     1.0000 0.46933  0.56067  0.10857  Biso   1.000  H
  H102     1.0000 0.47433  0.61727  0.09997  Biso   1.000  H
  H103     1.0000 0.41683  0.55947  0.09767  Biso   1.000  H
  C60      1.0000 0.31283  0.30957  0.98937  Biso   1.000  C
  H104     1.0000 0.33123  0.33717  0.00057  Biso   1.000  H
  H105     1.0000 0.27533  0.28067  0.99417  Biso   1.000  H
  C61      1.0000 0.74393  0.55877  0.00267  Biso   1.000  C
  H106     1.0000 0.76503  0.58787  0.01287  Biso   1.000  H
  H107     1.0000 0.74743  0.52587  0.00567  Biso   1.000  H
  H108     1.0000 0.75883  0.57287  0.98887  Biso   1.000  H
  C62      1.0000 0.49883  0.33247  0.14817  Biso   1.000  C
  N49      1.0000 0.43033  0.21687  0.21597  Biso   1.000  N
  N50      1.0000 0.34593  0.15457  0.20587  Biso   1.000  N
  N51      1.0000 0.39463  0.20497  0.23187  Biso   1.000  N
  N52      1.0000 0.40233  0.18627  0.20067  Biso   1.000  N
  N53      1.0000 0.33383  0.06197  0.17237  Biso   1.000  N
  N54      1.0000 0.38553  0.09677  0.16377  Biso   1.000  N
  N55      1.0000 0.31573  0.00987  0.16747  Biso   1.000  N
  N56      1.0000 0.35713  0.01037  0.15557  Biso   1.000  N
  N57      1.0000 0.45743  0.27867  0.15057  Biso   1.000  N
  C63      1.0000 0.65623  0.55687  0.01767  Biso   1.000  C
  N58      1.0000 0.48143  0.25227  0.16067  Biso   1.000  N
  N59      1.0000 0.53373  0.28647  0.16457  Biso   1.000  N
  N60      1.0000 0.51213  0.54247  0.05247  Biso   1.000  N
  N61      1.0000 0.59703  0.49407  0.99627  Biso   1.000  N
  N62      1.0000 0.47783  0.42187  0.02767  Biso   1.000  N
  N63      1.0000 0.46483  0.58627  0.05947  Biso   1.000  N
  N64      1.0000 0.40483  0.33967  0.03187  Biso   1.000  N
  N65      1.0000 0.47073  0.39187  0.00987  Biso   1.000  N
  N66      1.0000 0.60143  0.52677  0.01317  Biso   1.000  N
  N67      1.0000 0.43753  0.38917  0.04117  Biso   1.000  N
  N68      1.0000 0.48683  0.57077  0.04447  Biso   1.000  N
  N69      1.0000 0.64623  0.50277  0.99027  Biso   1.000  N
  N70      1.0000 0.54523  0.33717  0.15617  Biso   1.000  N
  N71      1.0000 0.47643  0.56717  0.07717  Biso   1.000  N
  N72      1.0000 0.68433  0.54317  0.00347  Biso   1.000  N
  S13      1.0000 0.45973  0.08467  0.13812  Biso   1.000  S
  S14      1.0000 0.28053  0.13487  0.24024  Biso   1.000  S
  S15      1.0000 0.48933  0.38697  0.13745  Biso   1.000  S
  S16      1.0000 0.53053  0.51327  0.09159  Biso   1.000  S
  S17      1.0000 0.39963  0.28467  0.99476  Biso   1.000  S
  S18      1.0000 0.68633  0.60427  0.03808  Biso   1.000  S
  Cu10     1.0000 0.28917  0.08962  0.18968  Biso   1.000  Cu
  Cu11     1.0000 0.52300  0.42361  0.98574  Biso   1.000  Cu
  Cu12     1.0000 0.43455  0.17609  0.17247  Biso   1.000  Cu
  Cu13     1.0000 0.79351  0.16287  0.63271  Biso   1.000  Cu
  C64      1.0000 0.86560  0.22230  0.56980  Biso   1.000  C
  H109     1.0000 0.89590  0.22870  0.57960  Biso   1.000  H
  H110     1.0000 0.87910  0.22290  0.55560  Biso   1.000  H
  C65      1.0000 0.85070  0.26910  0.57230  Biso   1.000  C
  H111     1.0000 0.82930  0.26220  0.58520  Biso   1.000  H
  H112     1.0000 0.88600  0.30510  0.57390  Biso   1.000  H
  C66      1.0000 0.81930  0.27490  0.55590  Biso   1.000  C
  H113     1.0000 0.81690  0.30890  0.55870  Biso   1.000  H
  H114     1.0000 0.78080  0.24260  0.55670  Biso   1.000  H
  C67      1.0000 0.92150  0.43500  0.41350  Biso   1.000  C
  H115     1.0000 0.88100  0.40930  0.41330  Biso   1.000  H
  H116     1.0000 0.93130  0.46420  0.40310  Biso   1.000  H
  H117     1.0000 0.94090  0.41440  0.41050  Biso   1.000  H
  C68      1.0000 0.99150  0.49960  0.44090  Biso   1.000  C
  C69      1.0000 0.93440  0.60270  0.51370  Biso   1.000  C
  C70      1.0000 0.98400  0.71060  0.51940  Biso   1.000  C
  H118     1.0000 0.95130  0.70340  0.52760  Biso   1.000  H
  H119     1.0000 0.98820  0.73540  0.50790  Biso   1.000  H
  H120     1.0000 0.01750  0.72850  0.52800  Biso   1.000  H
  C71      1.0000 0.90840  0.32650  0.65410  Biso   1.000  C
  C72      1.0000 0.82860  0.12590  0.59360  Biso   1.000  C
  C73      1.0000 0.73020  0.27910  0.50900  Biso   1.000  C
  H121     1.0000 0.72970  0.24710  0.51570  Biso   1.000  H
  H122     1.0000 0.71990  0.27030  0.49450  Biso   1.000  H
  H123     1.0000 0.70340  0.28720  0.51580  Biso   1.000  H
  C74      1.0000 0.97690  0.37240  0.62350  Biso   1.000  C
  H124     1.0000 0.97980  0.35890  0.60990  Biso   1.000  H
  H125     1.0000 0.97130  0.40460  0.62200  Biso   1.000  H
  H126     1.0000 0.01130  0.38360  0.63130  Biso   1.000  H
  C75      1.0000 0.98900  0.38100  0.68220  Biso   1.000  C
  H127     1.0000 0.97710  0.36860  0.69650  Biso   1.000  H
  H128     1.0000 0.01740  0.42150  0.68340  Biso   1.000  H
  C76      1.0000 0.93460  0.52540  0.57750  Biso   1.000  C
  H129     1.0000 0.89930  0.51150  0.58540  Biso   1.000  H
  H130     1.0000 0.96510  0.55390  0.58610  Biso   1.000  H
  C77      1.0000 0.93040  0.55300  0.55830  Biso   1.000  C
  H131     1.0000 0.95670  0.59320  0.56080  Biso   1.000  H
  H132     1.0000 0.94830  0.54150  0.54770  Biso   1.000  H
  C78      1.0000 0.89360  0.55230  0.54990  Biso   1.000  C
  H133     1.0000 0.87450  0.55900  0.56150  Biso   1.000  H
  H134     1.0000 0.87020  0.51190  0.54690  Biso   1.000  H
  C79      1.0000 0.02600  0.32850  0.69620  Biso   1.000  C
  H135     1.0000 0.06480  0.35540  0.70050  Biso   1.000  H
  H136     1.0000 0.00230  0.33440  0.70610  Biso   1.000  H
  C80      1.0000 0.87570  0.08970  0.56910  Biso   1.000  C
  H137     1.0000 0.86400  0.10600  0.55810  Biso   1.000  H
  H138     1.0000 0.85900  0.04940  0.56670  Biso   1.000  H
  H139     1.0000 0.91650  0.10720  0.56900  Biso   1.000  H
  C81      1.0000 0.02050  0.35710  0.67730  Biso   1.000  C
  H140     1.0000 0.00210  0.32950  0.66610  Biso   1.000  H
  H141     1.0000 0.05800  0.38600  0.67250  Biso   1.000  H
  C82      1.0000 0.58940  0.10790  0.66400  Biso   1.000  C
  H142     1.0000 0.56830  0.07880  0.65380  Biso   1.000  H
  H143     1.0000 0.58590  0.14080  0.66100  Biso   1.000  H
  H144     1.0000 0.57450  0.09380  0.67780  Biso   1.000  H
  C83      1.0000 0.83450  0.33420  0.51850  Biso   1.000  C
  N73      1.0000 0.90300  0.44980  0.45070  Biso   1.000  N
  N74      1.0000 0.98740  0.51210  0.46080  Biso   1.000  N
  N75      1.0000 0.93870  0.46170  0.43480  Biso   1.000  N
  N76      1.0000 0.93100  0.48040  0.46600  Biso   1.000  N
  N77      1.0000 0.99950  0.60470  0.49430  Biso   1.000  N
  N78      1.0000 0.94780  0.56990  0.50290  Biso   1.000  N
  N79      1.0000 0.01760  0.65680  0.49920  Biso   1.000  N
  N80      1.0000 0.97620  0.65630  0.51110  Biso   1.000  N
  N81      1.0000 0.87590  0.38800  0.51610  Biso   1.000  N
  C84      1.0000 0.67710  0.10980  0.64900  Biso   1.000  C
  N82      1.0000 0.85190  0.41440  0.50600  Biso   1.000  N
  N83      1.0000 0.79960  0.38020  0.50210  Biso   1.000  N
  N84      1.0000 0.82120  0.12420  0.61420  Biso   1.000  N
  N85      1.0000 0.73630  0.17260  0.67040  Biso   1.000  N
  N86      1.0000 0.85550  0.24480  0.63900  Biso   1.000  N
  N87      1.0000 0.86850  0.08040  0.60720  Biso   1.000  N
  N88      1.0000 0.92850  0.32700  0.63480  Biso   1.000  N
  N89      1.0000 0.86260  0.27480  0.65680  Biso   1.000  N
  N90      1.0000 0.73190  0.13990  0.65350  Biso   1.000  N
  N91      1.0000 0.89580  0.27750  0.62550  Biso   1.000  N
  N92      1.0000 0.84650  0.09590  0.62220  Biso   1.000  N
  N93      1.0000 0.68710  0.16390  0.67640  Biso   1.000  N
  N94      1.0000 0.78810  0.32950  0.51050  Biso   1.000  N
  N95      1.0000 0.85690  0.09950  0.58950  Biso   1.000  N
  N96      1.0000 0.64900  0.12350  0.66320  Biso   1.000  N
  S19      1.0000 0.87360  0.58200  0.52855  Biso   1.000  S
  S20      1.0000 0.05280  0.53180  0.42643  Biso   1.000  S
  S21      1.0000 0.84400  0.27970  0.52922  Biso   1.000  S
  S22      1.0000 0.80280  0.15340  0.57508  Biso   1.000  S
  S23      1.0000 0.93370  0.38200  0.67191  Biso   1.000  S
  S24      1.0000 0.64700  0.06240  0.62859  Biso   1.000  S
  Cu14     1.0000 0.04416  0.57705  0.47699  Biso   1.000  Cu
  Cu15     1.0000 0.81033  0.24306  0.68093  Biso   1.000  Cu
  Cu16     1.0000 0.89878  0.49058  0.49420  Biso   1.000  Cu
  Cu17     1.0000 0.46018  0.49620  0.96604  Biso   1.000  Cu
  C85      1.0000 0.53227  0.55563  0.90313  Biso   1.000  C
  H145     1.0000 0.56257  0.56203  0.91293  Biso   1.000  H
  H146     1.0000 0.54577  0.55623  0.88893  Biso   1.000  H
  C86      1.0000 0.51737  0.60243  0.90563  Biso   1.000  C
  H147     1.0000 0.49597  0.59553  0.91853  Biso   1.000  H
  H148     1.0000 0.55267  0.63843  0.90723  Biso   1.000  H
  C87      1.0000 0.48597  0.60823  0.88923  Biso   1.000  C
  H149     1.0000 0.48357  0.64223  0.89203  Biso   1.000  H
  H150     1.0000 0.44747  0.57593  0.89003  Biso   1.000  H
  C88      1.0000 0.58817  0.76833  0.74683  Biso   1.000  C
  H151     1.0000 0.54767  0.74263  0.74663  Biso   1.000  H
  H152     1.0000 0.59797  0.79753  0.73643  Biso   1.000  H
  H153     1.0000 0.60757  0.74773  0.74383  Biso   1.000  H
  C89      1.0000 0.65817  0.83293  0.77423  Biso   1.000  C
  C90      1.0000 0.60107  0.93603  0.84703  Biso   1.000  C
  C91      1.0000 0.65067  0.04393  0.85273  Biso   1.000  C
  H154     1.0000 0.61797  0.03673  0.86093  Biso   1.000  H
  H155     1.0000 0.65487  0.06873  0.84123  Biso   1.000  H
  H156     1.0000 0.68417  0.06183  0.86133  Biso   1.000  H
  C92      1.0000 0.57507  0.65983  0.98743  Biso   1.000  C
  C93      1.0000 0.49527  0.45923  0.92693  Biso   1.000  C
  C94      1.0000 0.39687  0.61243  0.84233  Biso   1.000  C
  H157     1.0000 0.39637  0.58043  0.84903  Biso   1.000  H
  H158     1.0000 0.38657  0.60363  0.82783  Biso   1.000  H
  H159     1.0000 0.37007  0.62053  0.84913  Biso   1.000  H
  C95      1.0000 0.64357  0.70573  0.95683  Biso   1.000  C
  H160     1.0000 0.64647  0.69223  0.94323  Biso   1.000  H
  H161     1.0000 0.63797  0.73793  0.95533  Biso   1.000  H
  H162     1.0000 0.67797  0.71693  0.96463  Biso   1.000  H
  C96      1.0000 0.65567  0.71433  0.01553  Biso   1.000  C
  H163     1.0000 0.64377  0.70193  0.02983  Biso   1.000  H
  H164     1.0000 0.68407  0.75483  0.01673  Biso   1.000  H
  C97      1.0000 0.60127  0.85873  0.91083  Biso   1.000  C
  H165     1.0000 0.56597  0.84483  0.91873  Biso   1.000  H
  H166     1.0000 0.63177  0.88723  0.91943  Biso   1.000  H
  C98      1.0000 0.59707  0.88633  0.89163  Biso   1.000  C
  H167     1.0000 0.62337  0.92653  0.89413  Biso   1.000  H
  H168     1.0000 0.61497  0.87483  0.88103  Biso   1.000  H
  C99      1.0000 0.56027  0.88563  0.88323  Biso   1.000  C
  H169     1.0000 0.54117  0.89233  0.89483  Biso   1.000  H
  H170     1.0000 0.53687  0.84523  0.88023  Biso   1.000  H
  C100     1.0000 0.69267  0.66183  0.02953  Biso   1.000  C
  H171     1.0000 0.73147  0.68873  0.03383  Biso   1.000  H
  H172     1.0000 0.66897  0.66773  0.03943  Biso   1.000  H
  C101     1.0000 0.54237  0.42303  0.90243  Biso   1.000  C
  H173     1.0000 0.53067  0.43933  0.89143  Biso   1.000  H
  H174     1.0000 0.52567  0.38273  0.90003  Biso   1.000  H
  H175     1.0000 0.58317  0.44053  0.90233  Biso   1.000  H
  C102     1.0000 0.68717  0.69043  0.01063  Biso   1.000  C
  H176     1.0000 0.66877  0.66283  0.99943  Biso   1.000  H
  H177     1.0000 0.72467  0.71933  0.00583  Biso   1.000  H
  C103     1.0000 0.25607  0.44123  0.99733  Biso   1.000  C
  H178     1.0000 0.23497  0.41213  0.98713  Biso   1.000  H
  H179     1.0000 0.25257  0.47413  0.99433  Biso   1.000  H
  H180     1.0000 0.24117  0.42713  0.01113  Biso   1.000  H
  C104     1.0000 0.50117  0.66753  0.85183  Biso   1.000  C
  N97      1.0000 0.56967  0.78313  0.78403  Biso   1.000  N
  N98      1.0000 0.65407  0.84543  0.79413  Biso   1.000  N
  N99      1.0000 0.60537  0.79503  0.76813  Biso   1.000  N
  N100     1.0000 0.59767  0.81373  0.79933  Biso   1.000  N
  N101     1.0000 0.66617  0.93803  0.82763  Biso   1.000  N
  N102     1.0000 0.61447  0.90323  0.83623  Biso   1.000  N
  N103     1.0000 0.68427  0.99013  0.83253  Biso   1.000  N
  N104     1.0000 0.64287  0.98963  0.84443  Biso   1.000  N
  N105     1.0000 0.54257  0.72133  0.84943  Biso   1.000  N
  C105     1.0000 0.34377  0.44313  0.98233  Biso   1.000  C
  N106     1.0000 0.51857  0.74773  0.83933  Biso   1.000  N
  N107     1.0000 0.46627  0.71353  0.83543  Biso   1.000  N
  N108     1.0000 0.48787  0.45753  0.94753  Biso   1.000  N
  N109     1.0000 0.40297  0.50593  0.00373  Biso   1.000  N
  N110     1.0000 0.52217  0.57813  0.97233  Biso   1.000  N
  N111     1.0000 0.53517  0.41373  0.94053  Biso   1.000  N
  N112     1.0000 0.59517  0.66033  0.96813  Biso   1.000  N
  N113     1.0000 0.52927  0.60813  0.99013  Biso   1.000  N
  N114     1.0000 0.39857  0.47323  0.98683  Biso   1.000  N
  N115     1.0000 0.56247  0.61083  0.95883  Biso   1.000  N
  N116     1.0000 0.51317  0.42923  0.95553  Biso   1.000  N
  N117     1.0000 0.35377  0.49723  0.00973  Biso   1.000  N
  N118     1.0000 0.45477  0.66283  0.84383  Biso   1.000  N
  N119     1.0000 0.52357  0.43283  0.92283  Biso   1.000  N
  N120     1.0000 0.31567  0.45683  0.99653  Biso   1.000  N
  S25      1.0000 0.54027  0.91533  0.86188  Biso   1.000  S
  S26      1.0000 0.71947  0.86513  0.75976  Biso   1.000  S
  S27      1.0000 0.51067  0.61303  0.86255  Biso   1.000  S
  S28      1.0000 0.46947  0.48673  0.90841  Biso   1.000  S
  S29      1.0000 0.60037  0.71533  0.00524  Biso   1.000  S
  S30      1.0000 0.31367  0.39573  0.96192  Biso   1.000  S
  Cu18     1.0000 0.71083  0.91038  0.81032  Biso   1.000  Cu
  Cu19     1.0000 0.47700  0.57639  0.01426  Biso   1.000  Cu
  Cu20     1.0000 0.56545  0.82391  0.82753  Biso   1.000  Cu
  Cu21     1.0000 0.12684  0.82954  0.29938  Biso   1.000  Cu
  C106     1.0000 0.19893  0.88897  0.23647  Biso   1.000  C
  H181     1.0000 0.22923  0.89537  0.24627  Biso   1.000  H
  H182     1.0000 0.21243  0.88957  0.22227  Biso   1.000  H
  C107     1.0000 0.18403  0.93577  0.23897  Biso   1.000  C
  H183     1.0000 0.16263  0.92887  0.25187  Biso   1.000  H
  H184     1.0000 0.21933  0.97177  0.24057  Biso   1.000  H
  C108     1.0000 0.15263  0.94157  0.22257  Biso   1.000  C
  H185     1.0000 0.15023  0.97557  0.22537  Biso   1.000  H
  H186     1.0000 0.11413  0.90927  0.22337  Biso   1.000  H
  C109     1.0000 0.25483  0.10167  0.08017  Biso   1.000  C
  H187     1.0000 0.21433  0.07597  0.07997  Biso   1.000  H
  H188     1.0000 0.26463  0.13087  0.06977  Biso   1.000  H
  H189     1.0000 0.27423  0.08107  0.07717  Biso   1.000  H
  C110     1.0000 0.32483  0.16627  0.10757  Biso   1.000  C
  C111     1.0000 0.26773  0.26937  0.18037  Biso   1.000  C
  C112     1.0000 0.31733  0.37727  0.18607  Biso   1.000  C
  H190     1.0000 0.28463  0.37007  0.19427  Biso   1.000  H
  H191     1.0000 0.32153  0.40207  0.17457  Biso   1.000  H
  H192     1.0000 0.35083  0.39517  0.19467  Biso   1.000  H
  C113     1.0000 0.24173  0.99317  0.32077  Biso   1.000  C
  C114     1.0000 0.16193  0.79257  0.26027  Biso   1.000  C
  C115     1.0000 0.06353  0.94577  0.17567  Biso   1.000  C
  H193     1.0000 0.06303  0.91377  0.18237  Biso   1.000  H
  H194     1.0000 0.05323  0.93697  0.16117  Biso   1.000  H
  H195     1.0000 0.03673  0.95387  0.18247  Biso   1.000  H
  C116     1.0000 0.31023  0.03907  0.29017  Biso   1.000  C
  H196     1.0000 0.31313  0.02557  0.27657  Biso   1.000  H
  H197     1.0000 0.30463  0.07127  0.28867  Biso   1.000  H
  H198     1.0000 0.34463  0.05027  0.29797  Biso   1.000  H
  C117     1.0000 0.32233  0.04767  0.34887  Biso   1.000  C
  H199     1.0000 0.31043  0.03527  0.36317  Biso   1.000  H
  H200     1.0000 0.35073  0.08817  0.35007  Biso   1.000  H
  C118     1.0000 0.26793  0.19207  0.24417  Biso   1.000  C
  H201     1.0000 0.23263  0.17817  0.25207  Biso   1.000  H
  H202     1.0000 0.29843  0.22057  0.25277  Biso   1.000  H
  C119     1.0000 0.26373  0.21967  0.22497  Biso   1.000  C
  H203     1.0000 0.29003  0.25987  0.22747  Biso   1.000  H
  H204     1.0000 0.28163  0.20817  0.21437  Biso   1.000  H
  C120     1.0000 0.22693  0.21897  0.21657  Biso   1.000  C
  H205     1.0000 0.20783  0.22567  0.22817  Biso   1.000  H
  H206     1.0000 0.20353  0.17857  0.21357  Biso   1.000  H
  C121     1.0000 0.35933  0.99517  0.36287  Biso   1.000  C
  H207     1.0000 0.39813  0.02207  0.36717  Biso   1.000  H
  H208     1.0000 0.33563  0.00107  0.37277  Biso   1.000  H
  C122     1.0000 0.20903  0.75637  0.23577  Biso   1.000  C
  H209     1.0000 0.19733  0.77267  0.22477  Biso   1.000  H
  H210     1.0000 0.19233  0.71607  0.23337  Biso   1.000  H
  H211     1.0000 0.24983  0.77387  0.23567  Biso   1.000  H
  C123     1.0000 0.35383  0.02377  0.34397  Biso   1.000  C
  H212     1.0000 0.33543  0.99617  0.33277  Biso   1.000  H
  H213     1.0000 0.39133  0.05267  0.33917  Biso   1.000  H
  C124     1.0000 0.92273  0.77457  0.33067  Biso   1.000  C
  H214     1.0000 0.90163  0.74547  0.32047  Biso   1.000  H
  H215     1.0000 0.91923  0.80747  0.32767  Biso   1.000  H
  H216     1.0000 0.90783  0.76047  0.34447  Biso   1.000  H
  C125     1.0000 0.16783  0.00087  0.18517  Biso   1.000  C
  N121     1.0000 0.23633  0.11647  0.11737  Biso   1.000  N
  N122     1.0000 0.32073  0.17877  0.12747  Biso   1.000  N
  N123     1.0000 0.27203  0.12837  0.10147  Biso   1.000  N
  N124     1.0000 0.26433  0.14707  0.13267  Biso   1.000  N
  N125     1.0000 0.33283  0.27137  0.16097  Biso   1.000  N
  N126     1.0000 0.28113  0.23657  0.16957  Biso   1.000  N
  N127     1.0000 0.35093  0.32347  0.16587  Biso   1.000  N
  N128     1.0000 0.30953  0.32297  0.17777  Biso   1.000  N
  N129     1.0000 0.20923  0.05467  0.18277  Biso   1.000  N
  C126     1.0000 0.01043  0.77647  0.31567  Biso   1.000  C
  N130     1.0000 0.18523  0.08107  0.17267  Biso   1.000  N
  N131     1.0000 0.13293  0.04687  0.16877  Biso   1.000  N
  N132     1.0000 0.15453  0.79087  0.28087  Biso   1.000  N
  N133     1.0000 0.06963  0.83927  0.33707  Biso   1.000  N
  N134     1.0000 0.18883  0.91147  0.30567  Biso   1.000  N
  N135     1.0000 0.20183  0.74707  0.27387  Biso   1.000  N
  N136     1.0000 0.26183  0.99367  0.30147  Biso   1.000  N
  N137     1.0000 0.19593  0.94147  0.32347  Biso   1.000  N
  N138     1.0000 0.06523  0.80657  0.32017  Biso   1.000  N
  N139     1.0000 0.22913  0.94417  0.29217  Biso   1.000  N
  N140     1.0000 0.17983  0.76257  0.28887  Biso   1.000  N
  N141     1.0000 0.02043  0.83057  0.34307  Biso   1.000  N
  N142     1.0000 0.12143  0.99617  0.17717  Biso   1.000  N
  N143     1.0000 0.19023  0.76617  0.25617  Biso   1.000  N
  N144     1.0000 0.98233  0.79017  0.32987  Biso   1.000  N
  S31      1.0000 0.20693  0.24867  0.19522  Biso   1.000  S
  S32      1.0000 0.38613  0.19847  0.09310  Biso   1.000  S
  S33      1.0000 0.17733  0.94637  0.19589  Biso   1.000  S
  S34      1.0000 0.13613  0.82007  0.24175  Biso   1.000  S
  S35      1.0000 0.26703  0.04867  0.33858  Biso   1.000  S
  S36      1.0000 0.98033  0.72907  0.29526  Biso   1.000  S
  Cu22     1.0000 0.37749  0.24372  0.14366  Biso   1.000  Cu
  Cu23     1.0000 0.14366  0.90973  0.34760  Biso   1.000  Cu
  Cu24     1.0000 0.23211  0.15725  0.16087  Biso   1.000  Cu
  Cu25     1.0000 0.16287  0.36936  0.36729  Biso   1.000  Cu
  C127     1.0000 0.22230  0.35670  0.43020  Biso   1.000  C
  H217     1.0000 0.22870  0.33280  0.42040  Biso   1.000  H
  H218     1.0000 0.22290  0.34380  0.44440  Biso   1.000  H
  C128     1.0000 0.26910  0.41840  0.42770  Biso   1.000  C
  H219     1.0000 0.26220  0.43290  0.41480  Biso   1.000  H
  H220     1.0000 0.30510  0.41910  0.42610  Biso   1.000  H
  C129     1.0000 0.27490  0.45560  0.44410  Biso   1.000  C
  H221     1.0000 0.30890  0.49200  0.44130  Biso   1.000  H
  H222     1.0000 0.24260  0.46180  0.44330  Biso   1.000  H
  C130     1.0000 0.43500  0.51350  0.58650  Biso   1.000  C
  H223     1.0000 0.40930  0.52830  0.58670  Biso   1.000  H
  H224     1.0000 0.46420  0.53290  0.59690  Biso   1.000  H
  H225     1.0000 0.41440  0.47350  0.58950  Biso   1.000  H
  C131     1.0000 0.49960  0.50810  0.55910  Biso   1.000  C
  C132     1.0000 0.60270  0.66830  0.48630  Biso   1.000  C
  C133     1.0000 0.71060  0.72660  0.48060  Biso   1.000  C
  H226     1.0000 0.70340  0.75210  0.47240  Biso   1.000  H
  H227     1.0000 0.73540  0.74720  0.49210  Biso   1.000  H
  H228     1.0000 0.72850  0.71100  0.47200  Biso   1.000  H
  C134     1.0000 0.32650  0.41810  0.34590  Biso   1.000  C
  C135     1.0000 0.12590  0.29730  0.40640  Biso   1.000  C
  C136     1.0000 0.27910  0.54890  0.49100  Biso   1.000  C
  H229     1.0000 0.24710  0.51740  0.48430  Biso   1.000  H
  H230     1.0000 0.27030  0.55040  0.50550  Biso   1.000  H
  H231     1.0000 0.28720  0.58380  0.48420  Biso   1.000  H
  C137     1.0000 0.37240  0.39550  0.37650  Biso   1.000  C
  H232     1.0000 0.35890  0.37910  0.39010  Biso   1.000  H
  H233     1.0000 0.40460  0.43330  0.37800  Biso   1.000  H
  H234     1.0000 0.38360  0.37230  0.36870  Biso   1.000  H
  C138     1.0000 0.38100  0.39200  0.31780  Biso   1.000  C
  H235     1.0000 0.36860  0.39150  0.30350  Biso   1.000  H
  H236     1.0000 0.42150  0.40410  0.31660  Biso   1.000  H
  C139     1.0000 0.52540  0.59080  0.42250  Biso   1.000  C
  H237     1.0000 0.51150  0.61220  0.41460  Biso   1.000  H
  H238     1.0000 0.55390  0.58880  0.41390  Biso   1.000  H
  C140     1.0000 0.55300  0.62260  0.44170  Biso   1.000  C
  H239     1.0000 0.59320  0.63650  0.43920  Biso   1.000  H
  H240     1.0000 0.54150  0.59320  0.45230  Biso   1.000  H
  C141     1.0000 0.55230  0.65870  0.45010  Biso   1.000  C
  H241     1.0000 0.55900  0.68450  0.43850  Biso   1.000  H
  H242     1.0000 0.51190  0.64170  0.45310  Biso   1.000  H
  C142     1.0000 0.32850  0.30250  0.30380  Biso   1.000  C
  H243     1.0000 0.35540  0.29060  0.29950  Biso   1.000  H
  H244     1.0000 0.33440  0.33210  0.29390  Biso   1.000  H
  C143     1.0000 0.08970  0.21400  0.43090  Biso   1.000  C
  H245     1.0000 0.10600  0.24200  0.44190  Biso   1.000  H
  H246     1.0000 0.04940  0.19040  0.43330  Biso   1.000  H
  H247     1.0000 0.10720  0.19070  0.43100  Biso   1.000  H
  C144     1.0000 0.35710  0.33660  0.32270  Biso   1.000  C
  H248     1.0000 0.32950  0.32740  0.33390  Biso   1.000  H
  H249     1.0000 0.38600  0.32800  0.32750  Biso   1.000  H
  C145     1.0000 0.10790  0.51850  0.33600  Biso   1.000  C
  H250     1.0000 0.07880  0.51050  0.34620  Biso   1.000  H
  H251     1.0000 0.14080  0.55490  0.33900  Biso   1.000  H
  H252     1.0000 0.09380  0.51930  0.32220  Biso   1.000  H
  C146     1.0000 0.33420  0.49970  0.48150  Biso   1.000  C
  N145     1.0000 0.44980  0.54680  0.54930  Biso   1.000  N
  N146     1.0000 0.51210  0.52470  0.53920  Biso   1.000  N
  N147     1.0000 0.46170  0.52300  0.56520  Biso   1.000  N
  N148     1.0000 0.48040  0.54940  0.53400  Biso   1.000  N
  N149     1.0000 0.60470  0.60520  0.50570  Biso   1.000  N
  N150     1.0000 0.56990  0.62210  0.49710  Biso   1.000  N
  N151     1.0000 0.65680  0.63920  0.50080  Biso   1.000  N
  N152     1.0000 0.65630  0.68010  0.48890  Biso   1.000  N
  N153     1.0000 0.38800  0.51210  0.48390  Biso   1.000  N
  C147     1.0000 0.10980  0.43270  0.35100  Biso   1.000  C
  N154     1.0000 0.41440  0.56250  0.49400  Biso   1.000  N
  N155     1.0000 0.38020  0.58060  0.49790  Biso   1.000  N
  N156     1.0000 0.12420  0.30300  0.38580  Biso   1.000  N
  N157     1.0000 0.17260  0.43630  0.32960  Biso   1.000  N
  N158     1.0000 0.24480  0.38930  0.36100  Biso   1.000  N
  N159     1.0000 0.08040  0.21190  0.39280  Biso   1.000  N
  N160     1.0000 0.32700  0.39850  0.36520  Biso   1.000  N
  N161     1.0000 0.27480  0.41220  0.34320  Biso   1.000  N
  N162     1.0000 0.13990  0.40800  0.34650  Biso   1.000  N
  N163     1.0000 0.27750  0.38170  0.37450  Biso   1.000  N
  N164     1.0000 0.09590  0.24940  0.37780  Biso   1.000  N
  N165     1.0000 0.16390  0.47680  0.32360  Biso   1.000  N
  N166     1.0000 0.32950  0.54140  0.48950  Biso   1.000  N
  N167     1.0000 0.09950  0.24260  0.41050  Biso   1.000  N
  N168     1.0000 0.12350  0.47450  0.33680  Biso   1.000  N
  S37      1.0000 0.58200  0.70840  0.47145  Biso   1.000  S
  S38      1.0000 0.53180  0.47900  0.57357  Biso   1.000  S
  S39      1.0000 0.27970  0.43570  0.47078  Biso   1.000  S
  S40      1.0000 0.15340  0.35060  0.42492  Biso   1.000  S
  S41      1.0000 0.38200  0.44830  0.32809  Biso   1.000  S
  S42      1.0000 0.06240  0.41540  0.37141  Biso   1.000  S
  Cu26     1.0000 0.57705  0.53289  0.52301  Biso   1.000  Cu
  Cu27     1.0000 0.24306  0.43273  0.31907  Biso   1.000  Cu
  Cu28     1.0000 0.49058  0.59180  0.50580  Biso   1.000  Cu
  Cu29     1.0000 0.82954  0.70269  0.70062  Biso   1.000  Cu
  C148     1.0000 0.88897  0.69003  0.76353  Biso   1.000  C
  H253     1.0000 0.89537  0.66613  0.75373  Biso   1.000  H
  H254     1.0000 0.88957  0.67713  0.77773  Biso   1.000  H
  C149     1.0000 0.93577  0.75173  0.76103  Biso   1.000  C
  H255     1.0000 0.92887  0.76623  0.74813  Biso   1.000  H
  H256     1.0000 0.97177  0.75243  0.75943  Biso   1.000  H
  C150     1.0000 0.94157  0.78893  0.77743  Biso   1.000  C
  H257     1.0000 0.97557  0.82533  0.77463  Biso   1.000  H
  H258     1.0000 0.90927  0.79513  0.77663  Biso   1.000  H
  C151     1.0000 0.10167  0.84683  0.91983  Biso   1.000  C
  H259     1.0000 0.07597  0.86163  0.92003  Biso   1.000  H
  H260     1.0000 0.13087  0.86623  0.93023  Biso   1.000  H
  H261     1.0000 0.08107  0.80683  0.92283  Biso   1.000  H
  C152     1.0000 0.16627  0.84143  0.89243  Biso   1.000  C
  C153     1.0000 0.26937  0.00163  0.81963  Biso   1.000  C
  C154     1.0000 0.37727  0.05993  0.81393  Biso   1.000  C
  H262     1.0000 0.37007  0.08543  0.80573  Biso   1.000  H
  H263     1.0000 0.40207  0.08053  0.82543  Biso   1.000  H
  H264     1.0000 0.39517  0.04433  0.80533  Biso   1.000  H
  C155     1.0000 0.99317  0.75143  0.67923  Biso   1.000  C
  C156     1.0000 0.79257  0.63063  0.73973  Biso   1.000  C
  C157     1.0000 0.94577  0.88223  0.82433  Biso   1.000  C
  H265     1.0000 0.91377  0.85073  0.81763  Biso   1.000  H
  H266     1.0000 0.93697  0.88373  0.83883  Biso   1.000  H
  H267     1.0000 0.95387  0.91713  0.81753  Biso   1.000  H
  C158     1.0000 0.03907  0.72883  0.70983  Biso   1.000  C
  H268     1.0000 0.02557  0.71243  0.72343  Biso   1.000  H
  H269     1.0000 0.07127  0.76663  0.71133  Biso   1.000  H
  H270     1.0000 0.05027  0.70563  0.70203  Biso   1.000  H
  C159     1.0000 0.04767  0.72533  0.65113  Biso   1.000  C
  H271     1.0000 0.03527  0.72483  0.63683  Biso   1.000  H
  H272     1.0000 0.08817  0.73743  0.64993  Biso   1.000  H
  C160     1.0000 0.19207  0.92413  0.75583  Biso   1.000  C
  H273     1.0000 0.17817  0.94553  0.74793  Biso   1.000  H
  H274     1.0000 0.22057  0.92213  0.74723  Biso   1.000  H
  C161     1.0000 0.21967  0.95593  0.77503  Biso   1.000  C
  H275     1.0000 0.25987  0.96983  0.77253  Biso   1.000  H
  H276     1.0000 0.20817  0.92653  0.78563  Biso   1.000  H
  C162     1.0000 0.21897  0.99203  0.78343  Biso   1.000  C
  H277     1.0000 0.22567  0.01783  0.77183  Biso   1.000  H
  H278     1.0000 0.17857  0.97503  0.78643  Biso   1.000  H
  C163     1.0000 0.99517  0.63583  0.63713  Biso   1.000  C
  H279     1.0000 0.02207  0.62393  0.63283  Biso   1.000  H
  H280     1.0000 0.00107  0.66543  0.62723  Biso   1.000  H
  C164     1.0000 0.75637  0.54733  0.76423  Biso   1.000  C
  H281     1.0000 0.77267  0.57533  0.77523  Biso   1.000  H
  H282     1.0000 0.71607  0.52373  0.76663  Biso   1.000  H
  H283     1.0000 0.77387  0.52403  0.76433  Biso   1.000  H
  C165     1.0000 0.02377  0.66993  0.65603  Biso   1.000  C
  H284     1.0000 0.99617  0.66073  0.66723  Biso   1.000  H
  H285     1.0000 0.05267  0.66133  0.66083  Biso   1.000  H
  C166     1.0000 0.77457  0.85183  0.66933  Biso   1.000  C
  H286     1.0000 0.74547  0.84383  0.67953  Biso   1.000  H
  H287     1.0000 0.80747  0.88823  0.67233  Biso   1.000  H
  H288     1.0000 0.76047  0.85263  0.65553  Biso   1.000  H
  C167     1.0000 0.00087  0.83303  0.81483  Biso   1.000  C
  N169     1.0000 0.11647  0.88013  0.88263  Biso   1.000  N
  N170     1.0000 0.17877  0.85803  0.87253  Biso   1.000  N
  N171     1.0000 0.12837  0.85633  0.89853  Biso   1.000  N
  N172     1.0000 0.14707  0.88273  0.86733  Biso   1.000  N
  N173     1.0000 0.27137  0.93853  0.83903  Biso   1.000  N
  N174     1.0000 0.23657  0.95543  0.83043  Biso   1.000  N
  N175     1.0000 0.32347  0.97253  0.83413  Biso   1.000  N
  N176     1.0000 0.32297  0.01343  0.82223  Biso   1.000  N
  N177     1.0000 0.05467  0.84543  0.81723  Biso   1.000  N
  C168     1.0000 0.77647  0.76603  0.68433  Biso   1.000  C
  N178     1.0000 0.08107  0.89583  0.82733  Biso   1.000  N
  N179     1.0000 0.04687  0.91393  0.83123  Biso   1.000  N
  N180     1.0000 0.79087  0.63633  0.71913  Biso   1.000  N
  N181     1.0000 0.83927  0.76963  0.66293  Biso   1.000  N
  N182     1.0000 0.91147  0.72263  0.69433  Biso   1.000  N
  N183     1.0000 0.74707  0.54523  0.72613  Biso   1.000  N
  N184     1.0000 0.99367  0.73183  0.69853  Biso   1.000  N
  N185     1.0000 0.94147  0.74553  0.67653  Biso   1.000  N
  N186     1.0000 0.80657  0.74133  0.67983  Biso   1.000  N
  N187     1.0000 0.94417  0.71503  0.70783  Biso   1.000  N
  N188     1.0000 0.76257  0.58273  0.71113  Biso   1.000  N
  N189     1.0000 0.83057  0.81013  0.65693  Biso   1.000  N
  N190     1.0000 0.99617  0.87473  0.82283  Biso   1.000  N
  N191     1.0000 0.76617  0.57593  0.74383  Biso   1.000  N
  N192     1.0000 0.79017  0.80783  0.67013  Biso   1.000  N
  S43      1.0000 0.24867  0.04173  0.80478  Biso   1.000  S
  S44      1.0000 0.19847  0.81233  0.90690  Biso   1.000  S
  S45      1.0000 0.94637  0.76903  0.80411  Biso   1.000  S
  S46      1.0000 0.82007  0.68393  0.75825  Biso   1.000  S
  S47      1.0000 0.04867  0.78163  0.66142  Biso   1.000  S
  S48      1.0000 0.72907  0.74873  0.70474  Biso   1.000  S
  Cu30     1.0000 0.24372  0.86622  0.85634  Biso   1.000  Cu
  Cu31     1.0000 0.90973  0.76606  0.65240  Biso   1.000  Cu
  Cu32     1.0000 0.15725  0.92513  0.83913  Biso   1.000  Cu
  Cu33     1.0000 0.49620  0.03603  0.03396  Biso   1.000  Cu
  C169     1.0000 0.55563  0.02337  0.09687  Biso   1.000  C
  H289     1.0000 0.56203  0.99947  0.08707  Biso   1.000  H
  H290     1.0000 0.55623  0.01047  0.11107  Biso   1.000  H
  C170     1.0000 0.60243  0.08507  0.09437  Biso   1.000  C
  H291     1.0000 0.59553  0.09957  0.08147  Biso   1.000  H
  H292     1.0000 0.63843  0.08577  0.09277  Biso   1.000  H
  C171     1.0000 0.60823  0.12227  0.11077  Biso   1.000  C
  H293     1.0000 0.64223  0.15867  0.10797  Biso   1.000  H
  H294     1.0000 0.57593  0.12847  0.10997  Biso   1.000  H
  C172     1.0000 0.76833  0.18017  0.25317  Biso   1.000  C
  H295     1.0000 0.74263  0.19497  0.25337  Biso   1.000  H
  H296     1.0000 0.79753  0.19957  0.26357  Biso   1.000  H
  H297     1.0000 0.74773  0.14017  0.25617  Biso   1.000  H
  C173     1.0000 0.83293  0.17477  0.22577  Biso   1.000  C
  C174     1.0000 0.93603  0.33497  0.15297  Biso   1.000  C
  C175     1.0000 0.04393  0.39327  0.14727  Biso   1.000  C
  H298     1.0000 0.03673  0.41877  0.13907  Biso   1.000  H
  H299     1.0000 0.06873  0.41387  0.15877  Biso   1.000  H
  H300     1.0000 0.06183  0.37767  0.13867  Biso   1.000  H
  C176     1.0000 0.65983  0.08477  0.01257  Biso   1.000  C
  C177     1.0000 0.45923  0.96397  0.07307  Biso   1.000  C
  C178     1.0000 0.61243  0.21557  0.15767  Biso   1.000  C
  H301     1.0000 0.58043  0.18407  0.15097  Biso   1.000  H
  H302     1.0000 0.60363  0.21707  0.17217  Biso   1.000  H
  H303     1.0000 0.62053  0.25047  0.15087  Biso   1.000  H
  C179     1.0000 0.70573  0.06217  0.04317  Biso   1.000  C
  H304     1.0000 0.69223  0.04577  0.05677  Biso   1.000  H
  H305     1.0000 0.73793  0.09997  0.04467  Biso   1.000  H
  H306     1.0000 0.71693  0.03897  0.03537  Biso   1.000  H
  C180     1.0000 0.71433  0.05867  0.98447  Biso   1.000  C
  H307     1.0000 0.70193  0.05817  0.97017  Biso   1.000  H
  H308     1.0000 0.75483  0.07077  0.98327  Biso   1.000  H
  C181     1.0000 0.85873  0.25747  0.08917  Biso   1.000  C
  H309     1.0000 0.84483  0.27887  0.08127  Biso   1.000  H
  H310     1.0000 0.88723  0.25547  0.08057  Biso   1.000  H
  C182     1.0000 0.88633  0.28927  0.10837  Biso   1.000  C
  H311     1.0000 0.92653  0.30317  0.10587  Biso   1.000  H
  H312     1.0000 0.87483  0.25987  0.11897  Biso   1.000  H
  C183     1.0000 0.88563  0.32537  0.11677  Biso   1.000  C
  H313     1.0000 0.89233  0.35117  0.10517  Biso   1.000  H
  H314     1.0000 0.84523  0.30837  0.11977  Biso   1.000  H
  C184     1.0000 0.66183  0.96917  0.97047  Biso   1.000  C
  H315     1.0000 0.68873  0.95727  0.96617  Biso   1.000  H
  H316     1.0000 0.66773  0.99877  0.96057  Biso   1.000  H
  C185     1.0000 0.42303  0.88067  0.09757  Biso   1.000  C
  H317     1.0000 0.43933  0.90867  0.10857  Biso   1.000  H
  H318     1.0000 0.38273  0.85707  0.09997  Biso   1.000  H
  H319     1.0000 0.44053  0.85737  0.09767  Biso   1.000  H
  C186     1.0000 0.69043  0.00327  0.98937  Biso   1.000  C
  H320     1.0000 0.66283  0.99407  0.00057  Biso   1.000  H
  H321     1.0000 0.71933  0.99467  0.99417  Biso   1.000  H
  C187     1.0000 0.44123  0.18517  0.00267  Biso   1.000  C
  H322     1.0000 0.41213  0.17717  0.01287  Biso   1.000  H
  H323     1.0000 0.47413  0.22157  0.00567  Biso   1.000  H
  H324     1.0000 0.42713  0.18597  0.98887  Biso   1.000  H
  C188     1.0000 0.66753  0.16637  0.14817  Biso   1.000  C
  N193     1.0000 0.78313  0.21347  0.21597  Biso   1.000  N
  N194     1.0000 0.84543  0.19137  0.20587  Biso   1.000  N
  N195     1.0000 0.79503  0.18967  0.23187  Biso   1.000  N
  N196     1.0000 0.81373  0.21607  0.20067  Biso   1.000  N
  N197     1.0000 0.93803  0.27187  0.17237  Biso   1.000  N
  N198     1.0000 0.90323  0.28877  0.16377  Biso   1.000  N
  N199     1.0000 0.99013  0.30587  0.16747  Biso   1.000  N
  N200     1.0000 0.98963  0.34677  0.15557  Biso   1.000  N
  N201     1.0000 0.72133  0.17877  0.15057  Biso   1.000  N
  C189     1.0000 0.44313  0.09937  0.01767  Biso   1.000  C
  N202     1.0000 0.74773  0.22917  0.16067  Biso   1.000  N
  N203     1.0000 0.71353  0.24727  0.16457  Biso   1.000  N
  N204     1.0000 0.45753  0.96967  0.05247  Biso   1.000  N
  N205     1.0000 0.50593  0.10297  0.99627  Biso   1.000  N
  N206     1.0000 0.57813  0.05597  0.02767  Biso   1.000  N
  N207     1.0000 0.41373  0.87857  0.05947  Biso   1.000  N
  N208     1.0000 0.66033  0.06517  0.03187  Biso   1.000  N
  N209     1.0000 0.60813  0.07887  0.00987  Biso   1.000  N
  N210     1.0000 0.47323  0.07467  0.01317  Biso   1.000  N
  N211     1.0000 0.61083  0.04837  0.04117  Biso   1.000  N
  N212     1.0000 0.42923  0.91607  0.04447  Biso   1.000  N
  N213     1.0000 0.49723  0.14347  0.99027  Biso   1.000  N
  N214     1.0000 0.66283  0.20807  0.15617  Biso   1.000  N
  N215     1.0000 0.43283  0.90927  0.07717  Biso   1.000  N
  N216     1.0000 0.45683  0.14117  0.00347  Biso   1.000  N
  S49      1.0000 0.91533  0.37507  0.13812  Biso   1.000  S
  S50      1.0000 0.86513  0.14567  0.24024  Biso   1.000  S
  S51      1.0000 0.61303  0.10237  0.13745  Biso   1.000  S
  S52      1.0000 0.48673  0.01727  0.09159  Biso   1.000  S
  S53      1.0000 0.71533  0.11497  0.99476  Biso   1.000  S
  S54      1.0000 0.39573  0.08207  0.03808  Biso   1.000  S
  Cu34     1.0000 0.91038  0.19956  0.18968  Biso   1.000  Cu
  Cu35     1.0000 0.57639  0.09940  0.98574  Biso   1.000  Cu
  Cu36     1.0000 0.82391  0.25847  0.17247  Biso   1.000  Cu
  Cu37     1.0000 0.83713  0.63064  0.63271  Biso   1.000  Cu
  C190     1.0000 0.77770  0.64330  0.56980  Biso   1.000  C
  H325     1.0000 0.77130  0.66720  0.57960  Biso   1.000  H
  H326     1.0000 0.77710  0.65620  0.55560  Biso   1.000  H
  C191     1.0000 0.73090  0.58160  0.57230  Biso   1.000  C
  H327     1.0000 0.73780  0.56710  0.58520  Biso   1.000  H
  H328     1.0000 0.69490  0.58090  0.57390  Biso   1.000  H
  C192     1.0000 0.72510  0.54440  0.55590  Biso   1.000  C
  H329     1.0000 0.69110  0.50800  0.55870  Biso   1.000  H
  H330     1.0000 0.75740  0.53820  0.55670  Biso   1.000  H
  C193     1.0000 0.56500  0.48650  0.41350  Biso   1.000  C
  H331     1.0000 0.59070  0.47170  0.41330  Biso   1.000  H
  H332     1.0000 0.53580  0.46710  0.40310  Biso   1.000  H
  H333     1.0000 0.58560  0.52650  0.41050  Biso   1.000  H
  C194     1.0000 0.50040  0.49190  0.44090  Biso   1.000  C
  C195     1.0000 0.39730  0.33170  0.51370  Biso   1.000  C
  C196     1.0000 0.28940  0.27340  0.51940  Biso   1.000  C
  H334     1.0000 0.29660  0.24790  0.52760  Biso   1.000  H
  H335     1.0000 0.26460  0.25280  0.50790  Biso   1.000  H
  H336     1.0000 0.27150  0.28900  0.52800  Biso   1.000  H
  C197     1.0000 0.67350  0.58190  0.65410  Biso   1.000  C
  C198     1.0000 0.87410  0.70270  0.59360  Biso   1.000  C
  C199     1.0000 0.72090  0.45110  0.50900  Biso   1.000  C
  H337     1.0000 0.75290  0.48260  0.51570  Biso   1.000  H
  H338     1.0000 0.72970  0.44960  0.49450  Biso   1.000  H
  H339     1.0000 0.71280  0.41620  0.51580  Biso   1.000  H
  C200     1.0000 0.62760  0.60450  0.62350  Biso   1.000  C
  H340     1.0000 0.64110  0.62090  0.60990  Biso   1.000  H
  H341     1.0000 0.59540  0.56670  0.62200  Biso   1.000  H
  H342     1.0000 0.61640  0.62770  0.63130  Biso   1.000  H
  C201     1.0000 0.61900  0.60800  0.68220  Biso   1.000  C
  H343     1.0000 0.63140  0.60850  0.69650  Biso   1.000  H
  H344     1.0000 0.57850  0.59590  0.68340  Biso   1.000  H
  C202     1.0000 0.47460  0.40920  0.57750  Biso   1.000  C
  H345     1.0000 0.48850  0.38780  0.58540  Biso   1.000  H
  H346     1.0000 0.44610  0.41120  0.58610  Biso   1.000  H
  C203     1.0000 0.44700  0.37740  0.55830  Biso   1.000  C
  H347     1.0000 0.40680  0.36350  0.56080  Biso   1.000  H
  H348     1.0000 0.45850  0.40680  0.54770  Biso   1.000  H
  C204     1.0000 0.44770  0.34130  0.54990  Biso   1.000  C
  H349     1.0000 0.44100  0.31550  0.56150  Biso   1.000  H
  H350     1.0000 0.48810  0.35830  0.54690  Biso   1.000  H
  C205     1.0000 0.67150  0.69750  0.69620  Biso   1.000  C
  H351     1.0000 0.64460  0.70940  0.70050  Biso   1.000  H
  H352     1.0000 0.66560  0.66790  0.70610  Biso   1.000  H
  C206     1.0000 0.91030  0.78600  0.56910  Biso   1.000  C
  H353     1.0000 0.89400  0.75800  0.55810  Biso   1.000  H
  H354     1.0000 0.95060  0.80960  0.56670  Biso   1.000  H
  H355     1.0000 0.89280  0.80930  0.56900  Biso   1.000  H
  C207     1.0000 0.64290  0.66340  0.67730  Biso   1.000  C
  H356     1.0000 0.67050  0.67260  0.66610  Biso   1.000  H
  H357     1.0000 0.61400  0.67200  0.67250  Biso   1.000  H
  C208     1.0000 0.89210  0.48150  0.66400  Biso   1.000  C
  H358     1.0000 0.92120  0.48950  0.65380  Biso   1.000  H
  H359     1.0000 0.85920  0.44510  0.66100  Biso   1.000  H
  H360     1.0000 0.90620  0.48070  0.67780  Biso   1.000  H
  C209     1.0000 0.66580  0.50030  0.51850  Biso   1.000  C
  N217     1.0000 0.55020  0.45320  0.45070  Biso   1.000  N
  N218     1.0000 0.48790  0.47530  0.46080  Biso   1.000  N
  N219     1.0000 0.53830  0.47700  0.43480  Biso   1.000  N
  N220     1.0000 0.51960  0.45060  0.46600  Biso   1.000  N
  N221     1.0000 0.39530  0.39480  0.49430  Biso   1.000  N
  N222     1.0000 0.43010  0.37790  0.50290  Biso   1.000  N
  N223     1.0000 0.34320  0.36080  0.49920  Biso   1.000  N
  N224     1.0000 0.34370  0.31990  0.51110  Biso   1.000  N
  N225     1.0000 0.61200  0.48790  0.51610  Biso   1.000  N
  C210     1.0000 0.89020  0.56730  0.64900  Biso   1.000  C
  N226     1.0000 0.58560  0.43750  0.50600  Biso   1.000  N
  N227     1.0000 0.61980  0.41940  0.50210  Biso   1.000  N
  N228     1.0000 0.87580  0.69700  0.61420  Biso   1.000  N
  N229     1.0000 0.82740  0.56370  0.67040  Biso   1.000  N
  N230     1.0000 0.75520  0.61070  0.63900  Biso   1.000  N
  N231     1.0000 0.91960  0.78810  0.60720  Biso   1.000  N
  N232     1.0000 0.67300  0.60150  0.63480  Biso   1.000  N
  N233     1.0000 0.72520  0.58780  0.65680  Biso   1.000  N
  N234     1.0000 0.86010  0.59200  0.65350  Biso   1.000  N
  N235     1.0000 0.72250  0.61830  0.62550  Biso   1.000  N
  N236     1.0000 0.90410  0.75060  0.62220  Biso   1.000  N
  N237     1.0000 0.83610  0.52320  0.67640  Biso   1.000  N
  N238     1.0000 0.67050  0.45860  0.51050  Biso   1.000  N
  N239     1.0000 0.90050  0.75740  0.58950  Biso   1.000  N
  N240     1.0000 0.87650  0.52550  0.66320  Biso   1.000  N
  S55      1.0000 0.41800  0.29160  0.52855  Biso   1.000  S
  S56      1.0000 0.46820  0.52100  0.42643  Biso   1.000  S
  S57      1.0000 0.72030  0.56430  0.52922  Biso   1.000  S
  S58      1.0000 0.84660  0.64940  0.57508  Biso   1.000  S
  S59      1.0000 0.61800  0.55170  0.67191  Biso   1.000  S
  S60      1.0000 0.93760  0.58460  0.62859  Biso   1.000  S
  Cu38     1.0000 0.42295  0.46711  0.47699  Biso   1.000  Cu
  Cu39     1.0000 0.75694  0.56727  0.68093  Biso   1.000  Cu
  Cu40     1.0000 0.50942  0.40820  0.49420  Biso   1.000  Cu
  Cu41     1.0000 0.50380  0.96397  0.96604  Biso   1.000  Cu
  C211     1.0000 0.44437  0.97663  0.90313  Biso   1.000  C
  H361     1.0000 0.43797  0.00053  0.91293  Biso   1.000  H
  H362     1.0000 0.44377  0.98953  0.88893  Biso   1.000  H
  C212     1.0000 0.39757  0.91493  0.90563  Biso   1.000  C
  H363     1.0000 0.40447  0.90043  0.91853  Biso   1.000  H
  H364     1.0000 0.36157  0.91423  0.90723  Biso   1.000  H
  C213     1.0000 0.39177  0.87773  0.88923  Biso   1.000  C
  H365     1.0000 0.35777  0.84133  0.89203  Biso   1.000  H
  H366     1.0000 0.42407  0.87153  0.89003  Biso   1.000  H
  C214     1.0000 0.23167  0.81983  0.74683  Biso   1.000  C
  H367     1.0000 0.25737  0.80503  0.74663  Biso   1.000  H
  H368     1.0000 0.20247  0.80043  0.73643  Biso   1.000  H
  H369     1.0000 0.25227  0.85983  0.74383  Biso   1.000  H
  C215     1.0000 0.16707  0.82523  0.77423  Biso   1.000  C
  C216     1.0000 0.06397  0.66503  0.84703  Biso   1.000  C
  C217     1.0000 0.95607  0.60673  0.85273  Biso   1.000  C
  H370     1.0000 0.96327  0.58123  0.86093  Biso   1.000  H
  H371     1.0000 0.93127  0.58613  0.84123  Biso   1.000  H
  H372     1.0000 0.93817  0.62233  0.86133  Biso   1.000  H
  C218     1.0000 0.34017  0.91523  0.98743  Biso   1.000  C
  C219     1.0000 0.54077  0.03603  0.92693  Biso   1.000  C
  C220     1.0000 0.38757  0.78443  0.84233  Biso   1.000  C
  H373     1.0000 0.41957  0.81593  0.84903  Biso   1.000  H
  H374     1.0000 0.39637  0.78293  0.82783  Biso   1.000  H
  H375     1.0000 0.37947  0.74953  0.84913  Biso   1.000  H
  C221     1.0000 0.29427  0.93783  0.95683  Biso   1.000  C
  H376     1.0000 0.30777  0.95423  0.94323  Biso   1.000  H
  H377     1.0000 0.26207  0.90003  0.95533  Biso   1.000  H
  H378     1.0000 0.28307  0.96103  0.96463  Biso   1.000  H
  C222     1.0000 0.28567  0.94133  0.01553  Biso   1.000  C
  H379     1.0000 0.29807  0.94183  0.02983  Biso   1.000  H
  H380     1.0000 0.24517  0.92923  0.01673  Biso   1.000  H
  C223     1.0000 0.14127  0.74253  0.91083  Biso   1.000  C
  H381     1.0000 0.15517  0.72113  0.91873  Biso   1.000  H
  H382     1.0000 0.11277  0.74453  0.91943  Biso   1.000  H
  C224     1.0000 0.11367  0.71073  0.89163  Biso   1.000  C
  H383     1.0000 0.07347  0.69683  0.89413  Biso   1.000  H
  H384     1.0000 0.12517  0.74013  0.88103  Biso   1.000  H
  C225     1.0000 0.11437  0.67463  0.88323  Biso   1.000  C
  H385     1.0000 0.10767  0.64883  0.89483  Biso   1.000  H
  H386     1.0000 0.15477  0.69163  0.88023  Biso   1.000  H
  C226     1.0000 0.33817  0.03083  0.02953  Biso   1.000  C
  H387     1.0000 0.31127  0.04273  0.03383  Biso   1.000  H
  H388     1.0000 0.33227  0.00123  0.03943  Biso   1.000  H
  C227     1.0000 0.57697  0.11933  0.90243  Biso   1.000  C
  H389     1.0000 0.56067  0.09133  0.89143  Biso   1.000  H
  H390     1.0000 0.61727  0.14293  0.90003  Biso   1.000  H
  H391     1.0000 0.55947  0.14263  0.90233  Biso   1.000  H
  C228     1.0000 0.30957  0.99673  0.01063  Biso   1.000  C
  H392     1.0000 0.33717  0.00593  0.99943  Biso   1.000  H
  H393     1.0000 0.28067  0.00533  0.00583  Biso   1.000  H
  C229     1.0000 0.55877  0.81483  0.99733  Biso   1.000  C
  H394     1.0000 0.58787  0.82283  0.98713  Biso   1.000  H
  H395     1.0000 0.52587  0.77843  0.99433  Biso   1.000  H
  H396     1.0000 0.57287  0.81403  0.01113  Biso   1.000  H
  C230     1.0000 0.33247  0.83363  0.85183  Biso   1.000  C
  N241     1.0000 0.21687  0.78653  0.78403  Biso   1.000  N
  N242     1.0000 0.15457  0.80863  0.79413  Biso   1.000  N
  N243     1.0000 0.20497  0.81033  0.76813  Biso   1.000  N
  N244     1.0000 0.18627  0.78393  0.79933  Biso   1.000  N
  N245     1.0000 0.06197  0.72813  0.82763  Biso   1.000  N
  N246     1.0000 0.09677  0.71123  0.83623  Biso   1.000  N
  N247     1.0000 0.00987  0.69413  0.83253  Biso   1.000  N
  N248     1.0000 0.01037  0.65323  0.84443  Biso   1.000  N
  N249     1.0000 0.27867  0.82123  0.84943  Biso   1.000  N
  C231     1.0000 0.55687  0.90063  0.98233  Biso   1.000  C
  N250     1.0000 0.25227  0.77083  0.83933  Biso   1.000  N
  N251     1.0000 0.28647  0.75273  0.83543  Biso   1.000  N
  N252     1.0000 0.54247  0.03033  0.94753  Biso   1.000  N
  N253     1.0000 0.49407  0.89703  0.00373  Biso   1.000  N
  N254     1.0000 0.42187  0.94403  0.97233  Biso   1.000  N
  N255     1.0000 0.58627  0.12143  0.94053  Biso   1.000  N
  N256     1.0000 0.33967  0.93483  0.96813  Biso   1.000  N
  N257     1.0000 0.39187  0.92113  0.99013  Biso   1.000  N
  N258     1.0000 0.52677  0.92533  0.98683  Biso   1.000  N
  N259     1.0000 0.38917  0.95163  0.95883  Biso   1.000  N
  N260     1.0000 0.57077  0.08393  0.95553  Biso   1.000  N
  N261     1.0000 0.50277  0.85653  0.00973  Biso   1.000  N
  N262     1.0000 0.33717  0.79193  0.84383  Biso   1.000  N
  N263     1.0000 0.56717  0.09073  0.92283  Biso   1.000  N
  N264     1.0000 0.54317  0.85883  0.99653  Biso   1.000  N
  S61      1.0000 0.08467  0.62493  0.86188  Biso   1.000  S
  S62      1.0000 0.13487  0.85433  0.75976  Biso   1.000  S
  S63      1.0000 0.38697  0.89763  0.86255  Biso   1.000  S
  S64      1.0000 0.51327  0.98273  0.90841  Biso   1.000  S
  S65      1.0000 0.28467  0.88503  0.00524  Biso   1.000  S
  S66      1.0000 0.60427  0.91793  0.96192  Biso   1.000  S
  Cu42     1.0000 0.08962  0.80044  0.81032  Biso   1.000  Cu
  Cu43     1.0000 0.42361  0.90060  0.01426  Biso   1.000  Cu
  Cu44     1.0000 0.17609  0.74153  0.82753  Biso   1.000  Cu
  Cu45     1.0000 0.17046  0.29731  0.29938  Biso   1.000  Cu
  C232     1.0000 0.11103  0.30997  0.23647  Biso   1.000  C
  H397     1.0000 0.10463  0.33387  0.24627  Biso   1.000  H
  H398     1.0000 0.11043  0.32287  0.22227  Biso   1.000  H
  C233     1.0000 0.06423  0.24827  0.23897  Biso   1.000  C
  H399     1.0000 0.07113  0.23377  0.25187  Biso   1.000  H
  H400     1.0000 0.02823  0.24757  0.24057  Biso   1.000  H
  C234     1.0000 0.05843  0.21107  0.22257  Biso   1.000  C
  H401     1.0000 0.02443  0.17467  0.22537  Biso   1.000  H
  H402     1.0000 0.09073  0.20487  0.22337  Biso   1.000  H
  C235     1.0000 0.89833  0.15317  0.08017  Biso   1.000  C
  H403     1.0000 0.92403  0.13837  0.07997  Biso   1.000  H
  H404     1.0000 0.86913  0.13377  0.06977  Biso   1.000  H
  H405     1.0000 0.91893  0.19317  0.07717  Biso   1.000  H
  C236     1.0000 0.83373  0.15857  0.10757  Biso   1.000  C
  C237     1.0000 0.73063  0.99837  0.18037  Biso   1.000  C
  C238     1.0000 0.62273  0.94007  0.18607  Biso   1.000  C
  H406     1.0000 0.62993  0.91457  0.19427  Biso   1.000  H
  H407     1.0000 0.59793  0.91947  0.17457  Biso   1.000  H
  H408     1.0000 0.60483  0.95567  0.19467  Biso   1.000  H
  C239     1.0000 0.00683  0.24857  0.32077  Biso   1.000  C
  C240     1.0000 0.20743  0.36937  0.26027  Biso   1.000  C
  C241     1.0000 0.05423  0.11777  0.17567  Biso   1.000  C
  H409     1.0000 0.08623  0.14927  0.18237  Biso   1.000  H
  H410     1.0000 0.06303  0.11627  0.16117  Biso   1.000  H
  H411     1.0000 0.04613  0.08287  0.18247  Biso   1.000  H
  C242     1.0000 0.96093  0.27117  0.29017  Biso   1.000  C
  H412     1.0000 0.97443  0.28757  0.27657  Biso   1.000  H
  H413     1.0000 0.92873  0.23337  0.28867  Biso   1.000  H
  H414     1.0000 0.94973  0.29437  0.29797  Biso   1.000  H
  C243     1.0000 0.95233  0.27467  0.34887  Biso   1.000  C
  H415     1.0000 0.96473  0.27517  0.36317  Biso   1.000  H
  H416     1.0000 0.91183  0.26257  0.35007  Biso   1.000  H
  C244     1.0000 0.80793  0.07587  0.24417  Biso   1.000  C
  H417     1.0000 0.82183  0.05447  0.25207  Biso   1.000  H
  H418     1.0000 0.77943  0.07787  0.25277  Biso   1.000  H
  C245     1.0000 0.78033  0.04407  0.22497  Biso   1.000  C
  H419     1.0000 0.74013  0.03017  0.22747  Biso   1.000  H
  H420     1.0000 0.79183  0.07347  0.21437  Biso   1.000  H
  C246     1.0000 0.78103  0.00797  0.21657  Biso   1.000  C
  H421     1.0000 0.77433  0.98217  0.22817  Biso   1.000  H
  H422     1.0000 0.82143  0.02497  0.21357  Biso   1.000  H
  C247     1.0000 0.00483  0.36417  0.36287  Biso   1.000  C
  H423     1.0000 0.97793  0.37607  0.36717  Biso   1.000  H
  H424     1.0000 0.99893  0.33457  0.37277  Biso   1.000  H
  C248     1.0000 0.24363  0.45267  0.23577  Biso   1.000  C
  H425     1.0000 0.22733  0.42467  0.22477  Biso   1.000  H
  H426     1.0000 0.28393  0.47627  0.23337  Biso   1.000  H
  H427     1.0000 0.22613  0.47597  0.23567  Biso   1.000  H
  C249     1.0000 0.97623  0.33007  0.34397  Biso   1.000  C
  H428     1.0000 0.00383  0.33927  0.33277  Biso   1.000  H
  H429     1.0000 0.94733  0.33867  0.33917  Biso   1.000  H
  C250     1.0000 0.22543  0.14817  0.33067  Biso   1.000  C
  H430     1.0000 0.25453  0.15617  0.32047  Biso   1.000  H
  H431     1.0000 0.19253  0.11177  0.32767  Biso   1.000  H
  H432     1.0000 0.23953  0.14737  0.34447  Biso   1.000  H
  C251     1.0000 0.99913  0.16697  0.18517  Biso   1.000  C
  N265     1.0000 0.88353  0.11987  0.11737  Biso   1.000  N
  N266     1.0000 0.82123  0.14197  0.12747  Biso   1.000  N
  N267     1.0000 0.87163  0.14367  0.10147  Biso   1.000  N
  N268     1.0000 0.85293  0.11727  0.13267  Biso   1.000  N
  N269     1.0000 0.72863  0.06147  0.16097  Biso   1.000  N
  N270     1.0000 0.76343  0.04457  0.16957  Biso   1.000  N
  N271     1.0000 0.67653  0.02747  0.16587  Biso   1.000  N
  N272     1.0000 0.67703  0.98657  0.17777  Biso   1.000  N
  N273     1.0000 0.94533  0.15457  0.18277  Biso   1.000  N
  C252     1.0000 0.22353  0.23397  0.31567  Biso   1.000  C
  N274     1.0000 0.91893  0.10417  0.17267  Biso   1.000  N
  N275     1.0000 0.95313  0.08607  0.16877  Biso   1.000  N
  N276     1.0000 0.20913  0.36367  0.28087  Biso   1.000  N
  N277     1.0000 0.16073  0.23037  0.33707  Biso   1.000  N
  N278     1.0000 0.08853  0.27737  0.30567  Biso   1.000  N
  N279     1.0000 0.25293  0.45477  0.27387  Biso   1.000  N
  N280     1.0000 0.00633  0.26817  0.30147  Biso   1.000  N
  N281     1.0000 0.05853  0.25447  0.32347  Biso   1.000  N
  N282     1.0000 0.19343  0.25867  0.32017  Biso   1.000  N
  N283     1.0000 0.05583  0.28497  0.29217  Biso   1.000  N
  N284     1.0000 0.23743  0.41727  0.28887  Biso   1.000  N
  N285     1.0000 0.16943  0.18987  0.34307  Biso   1.000  N
  N286     1.0000 0.00383  0.12527  0.17717  Biso   1.000  N
  N287     1.0000 0.23383  0.42407  0.25617  Biso   1.000  N
  N288     1.0000 0.20983  0.19217  0.32987  Biso   1.000  N
  S67      1.0000 0.75133  0.95827  0.19522  Biso   1.000  S
  S68      1.0000 0.80153  0.18767  0.09310  Biso   1.000  S
  S69      1.0000 0.05363  0.23097  0.19589  Biso   1.000  S
  S70      1.0000 0.17993  0.31607  0.24175  Biso   1.000  S
  S71      1.0000 0.95133  0.21837  0.33858  Biso   1.000  S
  S72      1.0000 0.27093  0.25127  0.29526  Biso   1.000  S
  Cu46     1.0000 0.75628  0.13378  0.14366  Biso   1.000  Cu
  Cu47     1.0000 0.09027  0.23394  0.34760  Biso   1.000  Cu
  Cu48     1.0000 0.84275  0.07487  0.16087  Biso   1.000  Cu
  Cu49     1.0000 0.63064  0.79351  0.36729  Biso   1.000  Cu
  C253     1.0000 0.64330  0.86560  0.43020  Biso   1.000  C
  H433     1.0000 0.66720  0.89590  0.42040  Biso   1.000  H
  H434     1.0000 0.65620  0.87910  0.44440  Biso   1.000  H
  C254     1.0000 0.58160  0.85070  0.42770  Biso   1.000  C
  H435     1.0000 0.56710  0.82930  0.41480  Biso   1.000  H
  H436     1.0000 0.58090  0.88600  0.42610  Biso   1.000  H
  C255     1.0000 0.54440  0.81930  0.44410  Biso   1.000  C
  H437     1.0000 0.50800  0.81690  0.44130  Biso   1.000  H
  H438     1.0000 0.53820  0.78080  0.44330  Biso   1.000  H
  C256     1.0000 0.48650  0.92150  0.58650  Biso   1.000  C
  H439     1.0000 0.47170  0.88100  0.58670  Biso   1.000  H
  H440     1.0000 0.46710  0.93130  0.59690  Biso   1.000  H
  H441     1.0000 0.52650  0.94090  0.58950  Biso   1.000  H
  C257     1.0000 0.49190  0.99150  0.55910  Biso   1.000  C
  C258     1.0000 0.33170  0.93440  0.48630  Biso   1.000  C
  C259     1.0000 0.27340  0.98400  0.48060  Biso   1.000  C
  H442     1.0000 0.24790  0.95130  0.47240  Biso   1.000  H
  H443     1.0000 0.25280  0.98820  0.49210  Biso   1.000  H
  H444     1.0000 0.28900  0.01750  0.47200  Biso   1.000  H
  C260     1.0000 0.58190  0.90840  0.34590  Biso   1.000  C
  C261     1.0000 0.70270  0.82860  0.40640  Biso   1.000  C
  C262     1.0000 0.45110  0.73020  0.49100  Biso   1.000  C
  H445     1.0000 0.48260  0.72970  0.48430  Biso   1.000  H
  H446     1.0000 0.44960  0.71990  0.50550  Biso   1.000  H
  H447     1.0000 0.41620  0.70340  0.48420  Biso   1.000  H
  C263     1.0000 0.60450  0.97690  0.37650  Biso   1.000  C
  H448     1.0000 0.62090  0.97980  0.39010  Biso   1.000  H
  H449     1.0000 0.56670  0.97130  0.37800  Biso   1.000  H
  H450     1.0000 0.62770  0.01130  0.36870  Biso   1.000  H
  C264     1.0000 0.60800  0.98900  0.31780  Biso   1.000  C
  H451     1.0000 0.60850  0.97710  0.30350  Biso   1.000  H
  H452     1.0000 0.59590  0.01740  0.31660  Biso   1.000  H
  C265     1.0000 0.40920  0.93460  0.42250  Biso   1.000  C
  H453     1.0000 0.38780  0.89930  0.41460  Biso   1.000  H
  H454     1.0000 0.41120  0.96510  0.41390  Biso   1.000  H
  C266     1.0000 0.37740  0.93040  0.44170  Biso   1.000  C
  H455     1.0000 0.36350  0.95670  0.43920  Biso   1.000  H
  H456     1.0000 0.40680  0.94830  0.45230  Biso   1.000  H
  C267     1.0000 0.34130  0.89360  0.45010  Biso   1.000  C
  H457     1.0000 0.31550  0.87450  0.43850  Biso   1.000  H
  H458     1.0000 0.35830  0.87020  0.45310  Biso   1.000  H
  C268     1.0000 0.69750  0.02600  0.30380  Biso   1.000  C
  H459     1.0000 0.70940  0.06480  0.29950  Biso   1.000  H
  H460     1.0000 0.66790  0.00230  0.29390  Biso   1.000  H
  C269     1.0000 0.78600  0.87570  0.43090  Biso   1.000  C
  H461     1.0000 0.75800  0.86400  0.44190  Biso   1.000  H
  H462     1.0000 0.80960  0.85900  0.43330  Biso   1.000  H
  H463     1.0000 0.80930  0.91650  0.43100  Biso   1.000  H
  C270     1.0000 0.66340  0.02050  0.32270  Biso   1.000  C
  H464     1.0000 0.67260  0.00210  0.33390  Biso   1.000  H
  H465     1.0000 0.67200  0.05800  0.32750  Biso   1.000  H
  C271     1.0000 0.48150  0.58940  0.33600  Biso   1.000  C
  H466     1.0000 0.48950  0.56830  0.34620  Biso   1.000  H
  H467     1.0000 0.44510  0.58590  0.33900  Biso   1.000  H
  H468     1.0000 0.48070  0.57450  0.32220  Biso   1.000  H
  C272     1.0000 0.50030  0.83450  0.48150  Biso   1.000  C
  N289     1.0000 0.45320  0.90300  0.54930  Biso   1.000  N
  N290     1.0000 0.47530  0.98740  0.53920  Biso   1.000  N
  N291     1.0000 0.47700  0.93870  0.56520  Biso   1.000  N
  N292     1.0000 0.45060  0.93100  0.53400  Biso   1.000  N
  N293     1.0000 0.39480  0.99950  0.50570  Biso   1.000  N
  N294     1.0000 0.37790  0.94780  0.49710  Biso   1.000  N
  N295     1.0000 0.36080  0.01760  0.50080  Biso   1.000  N
  N296     1.0000 0.31990  0.97620  0.48890  Biso   1.000  N
  N297     1.0000 0.48790  0.87590  0.48390  Biso   1.000  N
  C273     1.0000 0.56730  0.67710  0.35100  Biso   1.000  C
  N298     1.0000 0.43750  0.85190  0.49400  Biso   1.000  N
  N299     1.0000 0.41940  0.79960  0.49790  Biso   1.000  N
  N300     1.0000 0.69700  0.82120  0.38580  Biso   1.000  N
  N301     1.0000 0.56370  0.73630  0.32960  Biso   1.000  N
  N302     1.0000 0.61070  0.85550  0.36100  Biso   1.000  N
  N303     1.0000 0.78810  0.86850  0.39280  Biso   1.000  N
  N304     1.0000 0.60150  0.92850  0.36520  Biso   1.000  N
  N305     1.0000 0.58780  0.86260  0.34320  Biso   1.000  N
  N306     1.0000 0.59200  0.73190  0.34650  Biso   1.000  N
  N307     1.0000 0.61830  0.89580  0.37450  Biso   1.000  N
  N308     1.0000 0.75060  0.84650  0.37780  Biso   1.000  N
  N309     1.0000 0.52320  0.68710  0.32360  Biso   1.000  N
  N310     1.0000 0.45860  0.78810  0.48950  Biso   1.000  N
  N311     1.0000 0.75740  0.85690  0.41050  Biso   1.000  N
  N312     1.0000 0.52550  0.64900  0.33680  Biso   1.000  N
  S73      1.0000 0.29160  0.87360  0.47145  Biso   1.000  S
  S74      1.0000 0.52100  0.05280  0.57357  Biso   1.000  S
  S75      1.0000 0.56430  0.84400  0.47078  Biso   1.000  S
  S76      1.0000 0.64940  0.80280  0.42492  Biso   1.000  S
  S77      1.0000 0.55170  0.93370  0.32809  Biso   1.000  S
  S78      1.0000 0.58460  0.64700  0.37141  Biso   1.000  S
  Cu50     1.0000 0.46711  0.04416  0.52301  Biso   1.000  Cu
  Cu51     1.0000 0.56727  0.81033  0.31907  Biso   1.000  Cu
  Cu52     1.0000 0.40820  0.89878  0.50580  Biso   1.000  Cu
  Cu53     1.0000 0.29731  0.12684  0.70062  Biso   1.000  Cu
  C274     1.0000 0.30997  0.19893  0.76353  Biso   1.000  C
  H469     1.0000 0.33387  0.22923  0.75373  Biso   1.000  H
  H470     1.0000 0.32287  0.21243  0.77773  Biso   1.000  H
  C275     1.0000 0.24827  0.18403  0.76103  Biso   1.000  C
  H471     1.0000 0.23377  0.16263  0.74813  Biso   1.000  H
  H472     1.0000 0.24757  0.21933  0.75943  Biso   1.000  H
  C276     1.0000 0.21107  0.15263  0.77743  Biso   1.000  C
  H473     1.0000 0.17467  0.15023  0.77463  Biso   1.000  H
  H474     1.0000 0.20487  0.11413  0.77663  Biso   1.000  H
  C277     1.0000 0.15317  0.25483  0.91983  Biso   1.000  C
  H475     1.0000 0.13837  0.21433  0.92003  Biso   1.000  H
  H476     1.0000 0.13377  0.26463  0.93023  Biso   1.000  H
  H477     1.0000 0.19317  0.27423  0.92283  Biso   1.000  H
  C278     1.0000 0.15857  0.32483  0.89243  Biso   1.000  C
  C279     1.0000 0.99837  0.26773  0.81963  Biso   1.000  C
  C280     1.0000 0.94007  0.31733  0.81393  Biso   1.000  C
  H478     1.0000 0.91457  0.28463  0.80573  Biso   1.000  H
  H479     1.0000 0.91947  0.32153  0.82543  Biso   1.000  H
  H480     1.0000 0.95567  0.35083  0.80533  Biso   1.000  H
  C281     1.0000 0.24857  0.24173  0.67923  Biso   1.000  C
  C282     1.0000 0.36937  0.16193  0.73973  Biso   1.000  C
  C283     1.0000 0.11777  0.06353  0.82433  Biso   1.000  C
  H481     1.0000 0.14927  0.06303  0.81763  Biso   1.000  H
  H482     1.0000 0.11627  0.05323  0.83883  Biso   1.000  H
  H483     1.0000 0.08287  0.03673  0.81753  Biso   1.000  H
  C284     1.0000 0.27117  0.31023  0.70983  Biso   1.000  C
  H484     1.0000 0.28757  0.31313  0.72343  Biso   1.000  H
  H485     1.0000 0.23337  0.30463  0.71133  Biso   1.000  H
  H486     1.0000 0.29437  0.34463  0.70203  Biso   1.000  H
  C285     1.0000 0.27467  0.32233  0.65113  Biso   1.000  C
  H487     1.0000 0.27517  0.31043  0.63683  Biso   1.000  H
  H488     1.0000 0.26257  0.35073  0.64993  Biso   1.000  H
  C286     1.0000 0.07587  0.26793  0.75583  Biso   1.000  C
  H489     1.0000 0.05447  0.23263  0.74793  Biso   1.000  H
  H490     1.0000 0.07787  0.29843  0.74723  Biso   1.000  H
  C287     1.0000 0.04407  0.26373  0.77503  Biso   1.000  C
  H491     1.0000 0.03017  0.29003  0.77253  Biso   1.000  H
  H492     1.0000 0.07347  0.28163  0.78563  Biso   1.000  H
  C288     1.0000 0.00797  0.22693  0.78343  Biso   1.000  C
  H493     1.0000 0.98217  0.20783  0.77183  Biso   1.000  H
  H494     1.0000 0.02497  0.20353  0.78643  Biso   1.000  H
  C289     1.0000 0.36417  0.35933  0.63713  Biso   1.000  C
  H495     1.0000 0.37607  0.39813  0.63283  Biso   1.000  H
  H496     1.0000 0.33457  0.33563  0.62723  Biso   1.000  H
  C290     1.0000 0.45267  0.20903  0.76423  Biso   1.000  C
  H497     1.0000 0.42467  0.19733  0.77523  Biso   1.000  H
  H498     1.0000 0.47627  0.19233  0.76663  Biso   1.000  H
  H499     1.0000 0.47597  0.24983  0.76433  Biso   1.000  H
  C291     1.0000 0.33007  0.35383  0.65603  Biso   1.000  C
  H500     1.0000 0.33927  0.33543  0.66723  Biso   1.000  H
  H501     1.0000 0.33867  0.39133  0.66083  Biso   1.000  H
  C292     1.0000 0.14817  0.92273  0.66933  Biso   1.000  C
  H502     1.0000 0.15617  0.90163  0.67953  Biso   1.000  H
  H503     1.0000 0.11177  0.91923  0.67233  Biso   1.000  H
  H504     1.0000 0.14737  0.90783  0.65553  Biso   1.000  H
  C293     1.0000 0.16697  0.16783  0.81483  Biso   1.000  C
  N313     1.0000 0.11987  0.23633  0.88263  Biso   1.000  N
  N314     1.0000 0.14197  0.32073  0.87253  Biso   1.000  N
  N315     1.0000 0.14367  0.27203  0.89853  Biso   1.000  N
  N316     1.0000 0.11727  0.26433  0.86733  Biso   1.000  N
  N317     1.0000 0.06147  0.33283  0.83903  Biso   1.000  N
  N318     1.0000 0.04457  0.28113  0.83043  Biso   1.000  N
  N319     1.0000 0.02747  0.35093  0.83413  Biso   1.000  N
  N320     1.0000 0.98657  0.30953  0.82223  Biso   1.000  N
  N321     1.0000 0.15457  0.20923  0.81723  Biso   1.000  N
  C294     1.0000 0.23397  0.01043  0.68433  Biso   1.000  C
  N322     1.0000 0.10417  0.18523  0.82733  Biso   1.000  N
  N323     1.0000 0.08607  0.13293  0.83123  Biso   1.000  N
  N324     1.0000 0.36367  0.15453  0.71913  Biso   1.000  N
  N325     1.0000 0.23037  0.06963  0.66293  Biso   1.000  N
  N326     1.0000 0.27737  0.18883  0.69433  Biso   1.000  N
  N327     1.0000 0.45477  0.20183  0.72613  Biso   1.000  N
  N328     1.0000 0.26817  0.26183  0.69853  Biso   1.000  N
  N329     1.0000 0.25447  0.19593  0.67653  Biso   1.000  N
  N330     1.0000 0.25867  0.06523  0.67983  Biso   1.000  N
  N331     1.0000 0.28497  0.22913  0.70783  Biso   1.000  N
  N332     1.0000 0.41727  0.17983  0.71113  Biso   1.000  N
  N333     1.0000 0.18987  0.02043  0.65693  Biso   1.000  N
  N334     1.0000 0.12527  0.12143  0.82283  Biso   1.000  N
  N335     1.0000 0.42407  0.19023  0.74383  Biso   1.000  N
  N336     1.0000 0.19217  0.98233  0.67013  Biso   1.000  N
  S79      1.0000 0.95827  0.20693  0.80478  Biso   1.000  S
  S80      1.0000 0.18767  0.38613  0.90690  Biso   1.000  S
  S81      1.0000 0.23097  0.17733  0.80411  Biso   1.000  S
  S82      1.0000 0.31607  0.13613  0.75825  Biso   1.000  S
  S83      1.0000 0.21837  0.26703  0.66142  Biso   1.000  S
  S84      1.0000 0.25127  0.98033  0.70474  Biso   1.000  S
  Cu54     1.0000 0.13378  0.37749  0.85634  Biso   1.000  Cu
  Cu55     1.0000 0.23394  0.14366  0.65240  Biso   1.000  Cu
  Cu56     1.0000 0.07487  0.23211  0.83913  Biso   1.000  Cu
  Cu57     1.0000 0.96397  0.46018  0.03396  Biso   1.000  Cu
  C295     1.0000 0.97663  0.53227  0.09687  Biso   1.000  C
  H505     1.0000 0.00053  0.56257  0.08707  Biso   1.000  H
  H506     1.0000 0.98953  0.54577  0.11107  Biso   1.000  H
  C296     1.0000 0.91493  0.51737  0.09437  Biso   1.000  C
  H507     1.0000 0.90043  0.49597  0.08147  Biso   1.000  H
  H508     1.0000 0.91423  0.55267  0.09277  Biso   1.000  H
  C297     1.0000 0.87773  0.48597  0.11077  Biso   1.000  C
  H509     1.0000 0.84133  0.48357  0.10797  Biso   1.000  H
  H510     1.0000 0.87153  0.44747  0.10997  Biso   1.000  H
  C298     1.0000 0.81983  0.58817  0.25317  Biso   1.000  C
  H511     1.0000 0.80503  0.54767  0.25337  Biso   1.000  H
  H512     1.0000 0.80043  0.59797  0.26357  Biso   1.000  H
  H513     1.0000 0.85983  0.60757  0.25617  Biso   1.000  H
  C299     1.0000 0.82523  0.65817  0.22577  Biso   1.000  C
  C300     1.0000 0.66503  0.60107  0.15297  Biso   1.000  C
  C301     1.0000 0.60673  0.65067  0.14727  Biso   1.000  C
  H514     1.0000 0.58123  0.61797  0.13907  Biso   1.000  H
  H515     1.0000 0.58613  0.65487  0.15877  Biso   1.000  H
  H516     1.0000 0.62233  0.68417  0.13867  Biso   1.000  H
  C302     1.0000 0.91523  0.57507  0.01257  Biso   1.000  C
  C303     1.0000 0.03603  0.49527  0.07307  Biso   1.000  C
  C304     1.0000 0.78443  0.39687  0.15767  Biso   1.000  C
  H517     1.0000 0.81593  0.39637  0.15097  Biso   1.000  H
  H518     1.0000 0.78293  0.38657  0.17217  Biso   1.000  H
  H519     1.0000 0.74953  0.37007  0.15087  Biso   1.000  H
  C305     1.0000 0.93783  0.64357  0.04317  Biso   1.000  C
  H520     1.0000 0.95423  0.64647  0.05677  Biso   1.000  H
  H521     1.0000 0.90003  0.63797  0.04467  Biso   1.000  H
  H522     1.0000 0.96103  0.67797  0.03537  Biso   1.000  H
  C306     1.0000 0.94133  0.65567  0.98447  Biso   1.000  C
  H523     1.0000 0.94183  0.64377  0.97017  Biso   1.000  H
  H524     1.0000 0.92923  0.68407  0.98327  Biso   1.000  H
  C307     1.0000 0.74253  0.60127  0.08917  Biso   1.000  C
  H525     1.0000 0.72113  0.56597  0.08127  Biso   1.000  H
  H526     1.0000 0.74453  0.63177  0.08057  Biso   1.000  H
  C308     1.0000 0.71073  0.59707  0.10837  Biso   1.000  C
  H527     1.0000 0.69683  0.62337  0.10587  Biso   1.000  H
  H528     1.0000 0.74013  0.61497  0.11897  Biso   1.000  H
  C309     1.0000 0.67463  0.56027  0.11677  Biso   1.000  C
  H529     1.0000 0.64883  0.54117  0.10517  Biso   1.000  H
  H530     1.0000 0.69163  0.53687  0.11977  Biso   1.000  H
  C310     1.0000 0.03083  0.69267  0.97047  Biso   1.000  C
  H531     1.0000 0.04273  0.73147  0.96617  Biso   1.000  H
  H532     1.0000 0.00123  0.66897  0.96057  Biso   1.000  H
  C311     1.0000 0.11933  0.54237  0.09757  Biso   1.000  C
  H533     1.0000 0.09133  0.53067  0.10857  Biso   1.000  H
  H534     1.0000 0.14293  0.52567  0.09997  Biso   1.000  H
  H535     1.0000 0.14263  0.58317  0.09767  Biso   1.000  H
  C312     1.0000 0.99673  0.68717  0.98937  Biso   1.000  C
  H536     1.0000 0.00593  0.66877  0.00057  Biso   1.000  H
  H537     1.0000 0.00533  0.72467  0.99417  Biso   1.000  H
  C313     1.0000 0.81483  0.25607  0.00267  Biso   1.000  C
  H538     1.0000 0.82283  0.23497  0.01287  Biso   1.000  H
  H539     1.0000 0.77843  0.25257  0.00567  Biso   1.000  H
  H540     1.0000 0.81403  0.24117  0.98887  Biso   1.000  H
  C314     1.0000 0.83363  0.50117  0.14817  Biso   1.000  C
  N337     1.0000 0.78653  0.56967  0.21597  Biso   1.000  N
  N338     1.0000 0.80863  0.65407  0.20587  Biso   1.000  N
  N339     1.0000 0.81033  0.60537  0.23187  Biso   1.000  N
  N340     1.0000 0.78393  0.59767  0.20067  Biso   1.000  N
  N341     1.0000 0.72813  0.66617  0.17237  Biso   1.000  N
  N342     1.0000 0.71123  0.61447  0.16377  Biso   1.000  N
  N343     1.0000 0.69413  0.68427  0.16747  Biso   1.000  N
  N344     1.0000 0.65323  0.64287  0.15557  Biso   1.000  N
  N345     1.0000 0.82123  0.54257  0.15057  Biso   1.000  N
  C315     1.0000 0.90063  0.34377  0.01767  Biso   1.000  C
  N346     1.0000 0.77083  0.51857  0.16067  Biso   1.000  N
  N347     1.0000 0.75273  0.46627  0.16457  Biso   1.000  N
  N348     1.0000 0.03033  0.48787  0.05247  Biso   1.000  N
  N349     1.0000 0.89703  0.40297  0.99627  Biso   1.000  N
  N350     1.0000 0.94403  0.52217  0.02767  Biso   1.000  N
  N351     1.0000 0.12143  0.53517  0.05947  Biso   1.000  N
  N352     1.0000 0.93483  0.59517  0.03187  Biso   1.000  N
  N353     1.0000 0.92113  0.52927  0.00987  Biso   1.000  N
  N354     1.0000 0.92533  0.39857  0.01317  Biso   1.000  N
  N355     1.0000 0.95163  0.56247  0.04117  Biso   1.000  N
  N356     1.0000 0.08393  0.51317  0.04447  Biso   1.000  N
  N357     1.0000 0.85653  0.35377  0.99027  Biso   1.000  N
  N358     1.0000 0.79193  0.45477  0.15617  Biso   1.000  N
  N359     1.0000 0.09073  0.52357  0.07717  Biso   1.000  N
  N360     1.0000 0.85883  0.31567  0.00347  Biso   1.000  N
  S85      1.0000 0.62493  0.54027  0.13812  Biso   1.000  S
  S86      1.0000 0.85433  0.71947  0.24024  Biso   1.000  S
  S87      1.0000 0.89763  0.51067  0.13745  Biso   1.000  S
  S88      1.0000 0.98273  0.46947  0.09159  Biso   1.000  S
  S89      1.0000 0.88503  0.60037  0.99476  Biso   1.000  S
  S90      1.0000 0.91793  0.31367  0.03808  Biso   1.000  S
  Cu58     1.0000 0.80044  0.71083  0.18968  Biso   1.000  Cu
  Cu59     1.0000 0.90060  0.47700  0.98574  Biso   1.000  Cu
  Cu60     1.0000 0.74153  0.56545  0.17247  Biso   1.000  Cu
  Cu61     1.0000 0.36936  0.20649  0.63271  Biso   1.000  Cu
  C316     1.0000 0.35670  0.13440  0.56980  Biso   1.000  C
  H541     1.0000 0.33280  0.10410  0.57960  Biso   1.000  H
  H542     1.0000 0.34380  0.12090  0.55560  Biso   1.000  H
  C317     1.0000 0.41840  0.14930  0.57230  Biso   1.000  C
  H543     1.0000 0.43290  0.17070  0.58520  Biso   1.000  H
  H544     1.0000 0.41910  0.11400  0.57390  Biso   1.000  H
  C318     1.0000 0.45560  0.18070  0.55590  Biso   1.000  C
  H545     1.0000 0.49200  0.18310  0.55870  Biso   1.000  H
  H546     1.0000 0.46180  0.21920  0.55670  Biso   1.000  H
  C319     1.0000 0.51350  0.07850  0.41350  Biso   1.000  C
  H547     1.0000 0.52830  0.11900  0.41330  Biso   1.000  H
  H548     1.0000 0.53290  0.06870  0.40310  Biso   1.000  H
  H549     1.0000 0.47350  0.05910  0.41050  Biso   1.000  H
  C320     1.0000 0.50810  0.00850  0.44090  Biso   1.000  C
  C321     1.0000 0.66830  0.06560  0.51370  Biso   1.000  C
  C322     1.0000 0.72660  0.01600  0.51940  Biso   1.000  C
  H550     1.0000 0.75210  0.04870  0.52760  Biso   1.000  H
  H551     1.0000 0.74720  0.01180  0.50790  Biso   1.000  H
  H552     1.0000 0.71100  0.98250  0.52800  Biso   1.000  H
  C323     1.0000 0.41810  0.09160  0.65410  Biso   1.000  C
  C324     1.0000 0.29730  0.17140  0.59360  Biso   1.000  C
  C325     1.0000 0.54890  0.26980  0.50900  Biso   1.000  C
  H553     1.0000 0.51740  0.27030  0.51570  Biso   1.000  H
  H554     1.0000 0.55040  0.28010  0.49450  Biso   1.000  H
  H555     1.0000 0.58380  0.29660  0.51580  Biso   1.000  H
  C326     1.0000 0.39550  0.02310  0.62350  Biso   1.000  C
  H556     1.0000 0.37910  0.02020  0.60990  Biso   1.000  H
  H557     1.0000 0.43330  0.02870  0.62200  Biso   1.000  H
  H558     1.0000 0.37230  0.98870  0.63130  Biso   1.000  H
  C327     1.0000 0.39200  0.01100  0.68220  Biso   1.000  C
  H559     1.0000 0.39150  0.02290  0.69650  Biso   1.000  H
  H560     1.0000 0.40410  0.98260  0.68340  Biso   1.000  H
  C328     1.0000 0.59080  0.06540  0.57750  Biso   1.000  C
  H561     1.0000 0.61220  0.10070  0.58540  Biso   1.000  H
  H562     1.0000 0.58880  0.03490  0.58610  Biso   1.000  H
  C329     1.0000 0.62260  0.06960  0.55830  Biso   1.000  C
  H563     1.0000 0.63650  0.04330  0.56080  Biso   1.000  H
  H564     1.0000 0.59320  0.05170  0.54770  Biso   1.000  H
  C330     1.0000 0.65870  0.10640  0.54990  Biso   1.000  C
  H565     1.0000 0.68450  0.12550  0.56150  Biso   1.000  H
  H566     1.0000 0.64170  0.12980  0.54690  Biso   1.000  H
  C331     1.0000 0.30250  0.97400  0.69620  Biso   1.000  C
  H567     1.0000 0.29060  0.93520  0.70050  Biso   1.000  H
  H568     1.0000 0.33210  0.99770  0.70610  Biso   1.000  H
  C332     1.0000 0.21400  0.12430  0.56910  Biso   1.000  C
  H569     1.0000 0.24200  0.13600  0.55810  Biso   1.000  H
  H570     1.0000 0.19040  0.14100  0.56670  Biso   1.000  H
  H571     1.0000 0.19070  0.08350  0.56900  Biso   1.000  H
  C333     1.0000 0.33660  0.97950  0.67730  Biso   1.000  C
  H572     1.0000 0.32740  0.99790  0.66610  Biso   1.000  H
  H573     1.0000 0.32800  0.94200  0.67250  Biso   1.000  H
  C334     1.0000 0.51850  0.41060  0.66400  Biso   1.000  C
  H574     1.0000 0.51050  0.43170  0.65380  Biso   1.000  H
  H575     1.0000 0.55490  0.41410  0.66100  Biso   1.000  H
  H576     1.0000 0.51930  0.42550  0.67780  Biso   1.000  H
  C335     1.0000 0.49970  0.16550  0.51850  Biso   1.000  C
  N361     1.0000 0.54680  0.09700  0.45070  Biso   1.000  N
  N362     1.0000 0.52470  0.01260  0.46080  Biso   1.000  N
  N363     1.0000 0.52300  0.06130  0.43480  Biso   1.000  N
  N364     1.0000 0.54940  0.06900  0.46600  Biso   1.000  N
  N365     1.0000 0.60520  0.00050  0.49430  Biso   1.000  N
  N366     1.0000 0.62210  0.05220  0.50290  Biso   1.000  N
  N367     1.0000 0.63920  0.98240  0.49920  Biso   1.000  N
  N368     1.0000 0.68010  0.02380  0.51110  Biso   1.000  N
  N369     1.0000 0.51210  0.12410  0.51610  Biso   1.000  N
  C336     1.0000 0.43270  0.32290  0.64900  Biso   1.000  C
  N370     1.0000 0.56250  0.14810  0.50600  Biso   1.000  N
  N371     1.0000 0.58060  0.20040  0.50210  Biso   1.000  N
  N372     1.0000 0.30300  0.17880  0.61420  Biso   1.000  N
  N373     1.0000 0.43630  0.26370  0.67040  Biso   1.000  N
  N374     1.0000 0.38930  0.14450  0.63900  Biso   1.000  N
  N375     1.0000 0.21190  0.13150  0.60720  Biso   1.000  N
  N376     1.0000 0.39850  0.07150  0.63480  Biso   1.000  N
  N377     1.0000 0.41220  0.13740  0.65680  Biso   1.000  N
  N378     1.0000 0.40800  0.26810  0.65350  Biso   1.000  N
  N379     1.0000 0.38170  0.10420  0.62550  Biso   1.000  N
  N380     1.0000 0.24940  0.15350  0.62220  Biso   1.000  N
  N381     1.0000 0.47680  0.31290  0.67640  Biso   1.000  N
  N382     1.0000 0.54140  0.21190  0.51050  Biso   1.000  N
  N383     1.0000 0.24260  0.14310  0.58950  Biso   1.000  N
  N384     1.0000 0.47450  0.35100  0.66320  Biso   1.000  N
  S91      1.0000 0.70840  0.12640  0.52855  Biso   1.000  S
  S92      1.0000 0.47900  0.94720  0.42643  Biso   1.000  S
  S93      1.0000 0.43570  0.15600  0.52922  Biso   1.000  S
  S94      1.0000 0.35060  0.19720  0.57508  Biso   1.000  S
  S95      1.0000 0.44830  0.06630  0.67191  Biso   1.000  S
  S96      1.0000 0.41540  0.35300  0.62859  Biso   1.000  S
  Cu62     1.0000 0.53289  0.95584  0.47699  Biso   1.000  Cu
  Cu63     1.0000 0.43273  0.18967  0.68093  Biso   1.000  Cu
  Cu64     1.0000 0.59180  0.10122  0.49420  Biso   1.000  Cu
  Cu65     1.0000 0.03603  0.53982  0.96604  Biso   1.000  Cu
  C337     1.0000 0.02337  0.46773  0.90313  Biso   1.000  C
  H577     1.0000 0.99947  0.43743  0.91293  Biso   1.000  H
  H578     1.0000 0.01047  0.45423  0.88893  Biso   1.000  H
  C338     1.0000 0.08507  0.48263  0.90563  Biso   1.000  C
  H579     1.0000 0.09957  0.50403  0.91853  Biso   1.000  H
  H580     1.0000 0.08577  0.44733  0.90723  Biso   1.000  H
  C339     1.0000 0.12227  0.51403  0.88923  Biso   1.000  C
  H581     1.0000 0.15867  0.51643  0.89203  Biso   1.000  H
  H582     1.0000 0.12847  0.55253  0.89003  Biso   1.000  H
  C340     1.0000 0.18017  0.41183  0.74683  Biso   1.000  C
  H583     1.0000 0.19497  0.45233  0.74663  Biso   1.000  H
  H584     1.0000 0.19957  0.40203  0.73643  Biso   1.000  H
  H585     1.0000 0.14017  0.39243  0.74383  Biso   1.000  H
  C341     1.0000 0.17477  0.34183  0.77423  Biso   1.000  C
  C342     1.0000 0.33497  0.39893  0.84703  Biso   1.000  C
  C343     1.0000 0.39327  0.34933  0.85273  Biso   1.000  C
  H586     1.0000 0.41877  0.38203  0.86093  Biso   1.000  H
  H587     1.0000 0.41387  0.34513  0.84123  Biso   1.000  H
  H588     1.0000 0.37767  0.31583  0.86133  Biso   1.000  H
  C344     1.0000 0.08477  0.42493  0.98743  Biso   1.000  C
  C345     1.0000 0.96397  0.50473  0.92693  Biso   1.000  C
  C346     1.0000 0.21557  0.60313  0.84233  Biso   1.000  C
  H589     1.0000 0.18407  0.60363  0.84903  Biso   1.000  H
  H590     1.0000 0.21707  0.61343  0.82783  Biso   1.000  H
  H591     1.0000 0.25047  0.62993  0.84913  Biso   1.000  H
  C347     1.0000 0.06217  0.35643  0.95683  Biso   1.000  C
  H592     1.0000 0.04577  0.35353  0.94323  Biso   1.000  H
  H593     1.0000 0.09997  0.36203  0.95533  Biso   1.000  H
  H594     1.0000 0.03897  0.32203  0.96463  Biso   1.000  H
  C348     1.0000 0.05867  0.34433  0.01553  Biso   1.000  C
  H595     1.0000 0.05817  0.35623  0.02983  Biso   1.000  H
  H596     1.0000 0.07077  0.31593  0.01673  Biso   1.000  H
  C349     1.0000 0.25747  0.39873  0.91083  Biso   1.000  C
  H597     1.0000 0.27887  0.43403  0.91873  Biso   1.000  H
  H598     1.0000 0.25547  0.36823  0.91943  Biso   1.000  H
  C350     1.0000 0.28927  0.40293  0.89163  Biso   1.000  C
  H599     1.0000 0.30317  0.37663  0.89413  Biso   1.000  H
  H600     1.0000 0.25987  0.38503  0.88103  Biso   1.000  H
  C351     1.0000 0.32537  0.43973  0.88323  Biso   1.000  C
  H601     1.0000 0.35117  0.45883  0.89483  Biso   1.000  H
  H602     1.0000 0.30837  0.46313  0.88023  Biso   1.000  H
  C352     1.0000 0.96917  0.30733  0.02953  Biso   1.000  C
  H603     1.0000 0.95727  0.26853  0.03383  Biso   1.000  H
  H604     1.0000 0.99877  0.33103  0.03943  Biso   1.000  H
  C353     1.0000 0.88067  0.45763  0.90243  Biso   1.000  C
  H605     1.0000 0.90867  0.46933  0.89143  Biso   1.000  H
  H606     1.0000 0.85707  0.47433  0.90003  Biso   1.000  H
  H607     1.0000 0.85737  0.41683  0.90233  Biso   1.000  H
  C354     1.0000 0.00327  0.31283  0.01063  Biso   1.000  C
  H608     1.0000 0.99407  0.33123  0.99943  Biso   1.000  H
  H609     1.0000 0.99467  0.27533  0.00583  Biso   1.000  H
  C355     1.0000 0.18517  0.74393  0.99733  Biso   1.000  C
  H610     1.0000 0.17717  0.76503  0.98713  Biso   1.000  H
  H611     1.0000 0.22157  0.74743  0.99433  Biso   1.000  H
  H612     1.0000 0.18597  0.75883  0.01113  Biso   1.000  H
  C356     1.0000 0.16637  0.49883  0.85183  Biso   1.000  C
  N385     1.0000 0.21347  0.43033  0.78403  Biso   1.000  N
  N386     1.0000 0.19137  0.34593  0.79413  Biso   1.000  N
  N387     1.0000 0.18967  0.39463  0.76813  Biso   1.000  N
  N388     1.0000 0.21607  0.40233  0.79933  Biso   1.000  N
  N389     1.0000 0.27187  0.33383  0.82763  Biso   1.000  N
  N390     1.0000 0.28877  0.38553  0.83623  Biso   1.000  N
  N391     1.0000 0.30587  0.31573  0.83253  Biso   1.000  N
  N392     1.0000 0.34677  0.35713  0.84443  Biso   1.000  N
  N393     1.0000 0.17877  0.45743  0.84943  Biso   1.000  N
  C357     1.0000 0.09937  0.65623  0.98233  Biso   1.000  C
  N394     1.0000 0.22917  0.48143  0.83933  Biso   1.000  N
  N395     1.0000 0.24727  0.53373  0.83543  Biso   1.000  N
  N396     1.0000 0.96967  0.51213  0.94753  Biso   1.000  N
  N397     1.0000 0.10297  0.59703  0.00373  Biso   1.000  N
  N398     1.0000 0.05597  0.47783  0.97233  Biso   1.000  N
  N399     1.0000 0.87857  0.46483  0.94053  Biso   1.000  N
  N400     1.0000 0.06517  0.40483  0.96813  Biso   1.000  N
  N401     1.0000 0.07887  0.47073  0.99013  Biso   1.000  N
  N402     1.0000 0.07467  0.60143  0.98683  Biso   1.000  N
  N403     1.0000 0.04837  0.43753  0.95883  Biso   1.000  N
  N404     1.0000 0.91607  0.48683  0.95553  Biso   1.000  N
  N405     1.0000 0.14347  0.64623  0.00973  Biso   1.000  N
  N406     1.0000 0.20807  0.54523  0.84383  Biso   1.000  N
  N407     1.0000 0.90927  0.47643  0.92283  Biso   1.000  N
  N408     1.0000 0.14117  0.68433  0.99653  Biso   1.000  N
  S97      1.0000 0.37507  0.45973  0.86188  Biso   1.000  S
  S98      1.0000 0.14567  0.28053  0.75976  Biso   1.000  S
  S99      1.0000 0.10237  0.48933  0.86255  Biso   1.000  S
  S100     1.0000 0.01727  0.53053  0.90841  Biso   1.000  S
  S101     1.0000 0.11497  0.39963  0.00524  Biso   1.000  S
  S102     1.0000 0.08207  0.68633  0.96192  Biso   1.000  S
  Cu66     1.0000 0.19956  0.28917  0.81032  Biso   1.000  Cu
  Cu67     1.0000 0.09940  0.52300  0.01426  Biso   1.000  Cu
  Cu68     1.0000 0.25847  0.43455  0.82753  Biso   1.000  Cu
  Cu69     1.0000 0.70269  0.87316  0.29938  Biso   1.000  Cu
  C358     1.0000 0.69003  0.80107  0.23647  Biso   1.000  C
  H613     1.0000 0.66613  0.77077  0.24627  Biso   1.000  H
  H614     1.0000 0.67713  0.78757  0.22227  Biso   1.000  H
  C359     1.0000 0.75173  0.81597  0.23897  Biso   1.000  C
  H615     1.0000 0.76623  0.83737  0.25187  Biso   1.000  H
  H616     1.0000 0.75243  0.78067  0.24057  Biso   1.000  H
  C360     1.0000 0.78893  0.84737  0.22257  Biso   1.000  C
  H617     1.0000 0.82533  0.84977  0.22537  Biso   1.000  H
  H618     1.0000 0.79513  0.88587  0.22337  Biso   1.000  H
  C361     1.0000 0.84683  0.74517  0.08017  Biso   1.000  C
  H619     1.0000 0.86163  0.78567  0.07997  Biso   1.000  H
  H620     1.0000 0.86623  0.73537  0.06977  Biso   1.000  H
  H621     1.0000 0.80683  0.72577  0.07717  Biso   1.000  H
  C362     1.0000 0.84143  0.67517  0.10757  Biso   1.000  C
  C363     1.0000 0.00163  0.73227  0.18037  Biso   1.000  C
  C364     1.0000 0.05993  0.68267  0.18607  Biso   1.000  C
  H622     1.0000 0.08543  0.71537  0.19427  Biso   1.000  H
  H623     1.0000 0.08053  0.67847  0.17457  Biso   1.000  H
  H624     1.0000 0.04433  0.64917  0.19467  Biso   1.000  H
  C365     1.0000 0.75143  0.75827  0.32077  Biso   1.000  C
  C366     1.0000 0.63063  0.83807  0.26027  Biso   1.000  C
  C367     1.0000 0.88223  0.93647  0.17567  Biso   1.000  C
  H625     1.0000 0.85073  0.93697  0.18237  Biso   1.000  H
  H626     1.0000 0.88373  0.94677  0.16117  Biso   1.000  H
  H627     1.0000 0.91713  0.96327  0.18247  Biso   1.000  H
  C368     1.0000 0.72883  0.68977  0.29017  Biso   1.000  C
  H628     1.0000 0.71243  0.68687  0.27657  Biso   1.000  H
  H629     1.0000 0.76663  0.69537  0.28867  Biso   1.000  H
  H630     1.0000 0.70563  0.65537  0.29797  Biso   1.000  H
  C369     1.0000 0.72533  0.67767  0.34887  Biso   1.000  C
  H631     1.0000 0.72483  0.68957  0.36317  Biso   1.000  H
  H632     1.0000 0.73743  0.64927  0.35007  Biso   1.000  H
  C370     1.0000 0.92413  0.73207  0.24417  Biso   1.000  C
  H633     1.0000 0.94553  0.76737  0.25207  Biso   1.000  H
  H634     1.0000 0.92213  0.70157  0.25277  Biso   1.000  H
  C371     1.0000 0.95593  0.73627  0.22497  Biso   1.000  C
  H635     1.0000 0.96983  0.70997  0.22747  Biso   1.000  H
  H636     1.0000 0.92653  0.71837  0.21437  Biso   1.000  H
  C372     1.0000 0.99203  0.77307  0.21657  Biso   1.000  C
  H637     1.0000 0.01783  0.79217  0.22817  Biso   1.000  H
  H638     1.0000 0.97503  0.79647  0.21357  Biso   1.000  H
  C373     1.0000 0.63583  0.64067  0.36287  Biso   1.000  C
  H639     1.0000 0.62393  0.60187  0.36717  Biso   1.000  H
  H640     1.0000 0.66543  0.66437  0.37277  Biso   1.000  H
  C374     1.0000 0.54733  0.79097  0.23577  Biso   1.000  C
  H641     1.0000 0.57533  0.80267  0.22477  Biso   1.000  H
  H642     1.0000 0.52373  0.80767  0.23337  Biso   1.000  H
  H643     1.0000 0.52403  0.75017  0.23567  Biso   1.000  H
  C375     1.0000 0.66993  0.64617  0.34397  Biso   1.000  C
  H644     1.0000 0.66073  0.66457  0.33277  Biso   1.000  H
  H645     1.0000 0.66133  0.60867  0.33917  Biso   1.000  H
  C376     1.0000 0.85183  0.07727  0.33067  Biso   1.000  C
  H646     1.0000 0.84383  0.09837  0.32047  Biso   1.000  H
  H647     1.0000 0.88823  0.08077  0.32767  Biso   1.000  H
  H648     1.0000 0.85263  0.09217  0.34447  Biso   1.000  H
  C377     1.0000 0.83303  0.83217  0.18517  Biso   1.000  C
  N409     1.0000 0.88013  0.76367  0.11737  Biso   1.000  N
  N410     1.0000 0.85803  0.67927  0.12747  Biso   1.000  N
  N411     1.0000 0.85633  0.72797  0.10147  Biso   1.000  N
  N412     1.0000 0.88273  0.73567  0.13267  Biso   1.000  N
  N413     1.0000 0.93853  0.66717  0.16097  Biso   1.000  N
  N414     1.0000 0.95543  0.71887  0.16957  Biso   1.000  N
  N415     1.0000 0.97253  0.64907  0.16587  Biso   1.000  N
  N416     1.0000 0.01343  0.69047  0.17777  Biso   1.000  N
  N417     1.0000 0.84543  0.79077  0.18277  Biso   1.000  N
  C378     1.0000 0.76603  0.98957  0.31567  Biso   1.000  C
  N418     1.0000 0.89583  0.81477  0.17267  Biso   1.000  N
  N419     1.0000 0.91393  0.86707  0.16877  Biso   1.000  N
  N420     1.0000 0.63633  0.84547  0.28087  Biso   1.000  N
  N421     1.0000 0.76963  0.93037  0.33707  Biso   1.000  N
  N422     1.0000 0.72263  0.81117  0.30567  Biso   1.000  N
  N423     1.0000 0.54523  0.79817  0.27387  Biso   1.000  N
  N424     1.0000 0.73183  0.73817  0.30147  Biso   1.000  N
  N425     1.0000 0.74553  0.80407  0.32347  Biso   1.000  N
  N426     1.0000 0.74133  0.93477  0.32017  Biso   1.000  N
  N427     1.0000 0.71503  0.77087  0.29217  Biso   1.000  N
  N428     1.0000 0.58273  0.82017  0.28887  Biso   1.000  N
  N429     1.0000 0.81013  0.97957  0.34307  Biso   1.000  N
  N430     1.0000 0.87473  0.87857  0.17717  Biso   1.000  N
  N431     1.0000 0.57593  0.80977  0.25617  Biso   1.000  N
  N432     1.0000 0.80783  0.01767  0.32987  Biso   1.000  N
  S103     1.0000 0.04173  0.79307  0.19522  Biso   1.000  S
  S104     1.0000 0.81233  0.61387  0.09310  Biso   1.000  S
  S105     1.0000 0.76903  0.82267  0.19589  Biso   1.000  S
  S106     1.0000 0.68393  0.86387  0.24175  Biso   1.000  S
  S107     1.0000 0.78163  0.73297  0.33858  Biso   1.000  S
  S108     1.0000 0.74873  0.01967  0.29526  Biso   1.000  S
  Cu70     1.0000 0.86622  0.62251  0.14366  Biso   1.000  Cu
  Cu71     1.0000 0.76606  0.85634  0.34760  Biso   1.000  Cu
  Cu72     1.0000 0.92513  0.76789  0.16087  Biso   1.000  Cu
