data_image0
_cell_length_a       24.2096
_cell_length_b       24.2096
_cell_length_c       24.2096
_cell_angle_alpha    90
_cell_angle_beta     90
_cell_angle_gamma    90

_symmetry_space_group_name_H-M    "P 1"
_symmetry_int_tables_number       1

loop_
  _symmetry_equiv_pos_as_xyz
  'x, y, z'

loop_
  _atom_site_label
  _atom_site_occupancy
  _atom_site_fract_x
  _atom_site_fract_y
  _atom_site_fract_z
  _atom_site_thermal_displace_type
  _atom_site_B_iso_or_equiv
  _atom_site_type_symbol
  C1       1.0000 0.43900  0.35290  0.50270  Biso   1.000  C
  H1       1.0000 0.47030  0.37600  0.51390  Biso   1.000  H
  H2       1.0000 0.42030  0.36990  0.47100  Biso   1.000  H
  H3       1.0000 0.45250  0.31610  0.49230  Biso   1.000  H
  C2       1.0000 0.34150  0.32960  0.53230  Biso   1.000  C
  H4       1.0000 0.33330  0.34380  0.49530  Biso   1.000  H
  H5       1.0000 0.31450  0.34410  0.55860  Biso   1.000  H
  H6       1.0000 0.33960  0.28920  0.53190  Biso   1.000  H
  C3       1.0000 0.42330  0.30640  0.58590  Biso   1.000  C
  H7       1.0000 0.42740  0.27150  0.56570  Biso   1.000  H
  H8       1.0000 0.39890  0.30080  0.61770  Biso   1.000  H
  H9       1.0000 0.45950  0.31890  0.59880  Biso   1.000  H
  C4       1.0000 0.39960  0.34780  0.54950  Biso   1.000  C
  C5       1.0000 0.39550  0.40300  0.57870  Biso   1.000  C
  C6       1.0000 0.35100  0.43960  0.57540  Biso   1.000  C
  H10      1.0000 0.31910  0.42620  0.55690  Biso   1.000  H
  C7       1.0000 0.34760  0.49120  0.59510  Biso   1.000  C
  C8       1.0000 0.30130  0.52620  0.58420  Biso   1.000  C
  C9       1.0000 0.30310  0.58020  0.59960  Biso   1.000  C
  H11      1.0000 0.33390  0.59390  0.61960  Biso   1.000  H
  C10      1.0000 0.25900  0.61580  0.58590  Biso   1.000  C
  H12      1.0000 0.26350  0.65380  0.59430  Biso   1.000  H
  C11      1.0000 0.21030  0.60030  0.56160  Biso   1.000  C
  C12      1.0000 0.21090  0.54390  0.54790  Biso   1.000  C
  H13      1.0000 0.17860  0.52950  0.53080  Biso   1.000  H
  C13      1.0000 0.25370  0.50740  0.55690  Biso   1.000  C
  H14      1.0000 0.25110  0.47020  0.54480  Biso   1.000  H
  C14      1.0000 0.16520  0.63890  0.55050  Biso   1.000  C
  C15      1.0000 0.16110  0.68550  0.57480  Biso   1.000  C
  H15      1.0000 0.18990  0.69640  0.59910  Biso   1.000  H
  C16      1.0000 0.11710  0.72100  0.56760  Biso   1.000  C
  H16      1.0000 0.11180  0.75160  0.59150  Biso   1.000  H
  C17      1.0000 0.07990  0.71040  0.52340  Biso   1.000  C
  C18      1.0000 0.08890  0.66400  0.49190  Biso   1.000  C
  H17      1.0000 0.06600  0.65700  0.46070  Biso   1.000  H
  C19      1.0000 0.13110  0.62680  0.50500  Biso   1.000  C
  H18      1.0000 0.13660  0.59430  0.48380  Biso   1.000  H
  C20      1.0000 0.03330  0.75040  0.51460  Biso   1.000  C
  C21      1.0000 0.99470  0.74050  0.47100  Biso   1.000  C
  H19      1.0000 0.00070  0.70890  0.44840  Biso   1.000  H
  C22      1.0000 0.94930  0.77330  0.45910  Biso   1.000  C
  C23      1.0000 0.91220  0.75990  0.41320  Biso   1.000  C
  C24      1.0000 0.91940  0.80400  0.37070  Biso   1.000  C
  H20      1.0000 0.91510  0.84030  0.38810  Biso   1.000  H
  H21      1.0000 0.89150  0.79950  0.34170  Biso   1.000  H
  H22      1.0000 0.95630  0.80120  0.35440  Biso   1.000  H
  C25      1.0000 0.85250  0.76170  0.43820  Biso   1.000  C
  H23      1.0000 0.84560  0.79830  0.45410  Biso   1.000  H
  H24      1.0000 0.84900  0.73360  0.46700  Biso   1.000  H
  H25      1.0000 0.82540  0.75440  0.40890  Biso   1.000  H
  C26      1.0000 0.92460  0.70280  0.38740  Biso   1.000  C
  H26      1.0000 0.89470  0.69260  0.36210  Biso   1.000  H
  H27      1.0000 0.92760  0.67510  0.41680  Biso   1.000  H
  H28      1.0000 0.95960  0.70460  0.36700  Biso   1.000  H
  O1       1.0000 0.43980  0.41420  0.60570  Biso   1.000  O
  O2       1.0000 0.38490  0.51142  0.62520  Biso   1.000  O
  O3       1.0000 0.03327  0.79210  0.54380  Biso   1.000  O
  O4       1.0000 0.93959  0.81810  0.48470  Biso   1.000  O
  Cu1      1.0000 0.45256  0.47829  0.65056  Biso   1.000  Cu
  C27      1.0000 0.49730  0.93900  0.14710  Biso   1.000  C
  H29      1.0000 0.48610  0.97030  0.12400  Biso   1.000  H
  H30      1.0000 0.52900  0.92030  0.13010  Biso   1.000  H
  H31      1.0000 0.50770  0.95250  0.18390  Biso   1.000  H
  C28      1.0000 0.46770  0.84150  0.17040  Biso   1.000  C
  H32      1.0000 0.50470  0.83330  0.15620  Biso   1.000  H
  H33      1.0000 0.44140  0.81450  0.15590  Biso   1.000  H
  H34      1.0000 0.46810  0.83960  0.21080  Biso   1.000  H
  C29      1.0000 0.41410  0.92330  0.19360  Biso   1.000  C
  H35      1.0000 0.43430  0.92740  0.22850  Biso   1.000  H
  H36      1.0000 0.38230  0.89890  0.19920  Biso   1.000  H
  H37      1.0000 0.40120  0.95950  0.18110  Biso   1.000  H
  C30      1.0000 0.45050  0.89960  0.15220  Biso   1.000  C
  C31      1.0000 0.42130  0.89550  0.09700  Biso   1.000  C
  C32      1.0000 0.42460  0.85100  0.06040  Biso   1.000  C
  H38      1.0000 0.44310  0.81910  0.07380  Biso   1.000  H
  C33      1.0000 0.40490  0.84760  0.00880  Biso   1.000  C
  C34      1.0000 0.41580  0.80130  0.97380  Biso   1.000  C
  C35      1.0000 0.40040  0.80310  0.91980  Biso   1.000  C
  H39      1.0000 0.38040  0.83390  0.90610  Biso   1.000  H
  C36      1.0000 0.41410  0.75900  0.88420  Biso   1.000  C
  H40      1.0000 0.40570  0.76350  0.84620  Biso   1.000  H
  C37      1.0000 0.43840  0.71030  0.89970  Biso   1.000  C
  C38      1.0000 0.45210  0.71090  0.95610  Biso   1.000  C
  H41      1.0000 0.46920  0.67860  0.97050  Biso   1.000  H
  C39      1.0000 0.44310  0.75370  0.99260  Biso   1.000  C
  H42      1.0000 0.45520  0.75110  0.02980  Biso   1.000  H
  C40      1.0000 0.44950  0.66520  0.86110  Biso   1.000  C
  C41      1.0000 0.42520  0.66110  0.81450  Biso   1.000  C
  H43      1.0000 0.40090  0.68990  0.80360  Biso   1.000  H
  C42      1.0000 0.43240  0.61710  0.77900  Biso   1.000  C
  H44      1.0000 0.40850  0.61180  0.74840  Biso   1.000  H
  C43      1.0000 0.47660  0.57990  0.78960  Biso   1.000  C
  C44      1.0000 0.50810  0.58890  0.83600  Biso   1.000  C
  H45      1.0000 0.53930  0.56600  0.84300  Biso   1.000  H
  C45      1.0000 0.49500  0.63110  0.87320  Biso   1.000  C
  H46      1.0000 0.51620  0.63660  0.90570  Biso   1.000  H
  C46      1.0000 0.48540  0.53330  0.74960  Biso   1.000  C
  C47      1.0000 0.52900  0.49470  0.75950  Biso   1.000  C
  H47      1.0000 0.55160  0.50070  0.79110  Biso   1.000  H
  C48      1.0000 0.54090  0.44930  0.72670  Biso   1.000  C
  C49      1.0000 0.58680  0.41220  0.74010  Biso   1.000  C
  C50      1.0000 0.62930  0.41940  0.69600  Biso   1.000  C
  H48      1.0000 0.61190  0.41510  0.65970  Biso   1.000  H
  H49      1.0000 0.65830  0.39150  0.70050  Biso   1.000  H
  H50      1.0000 0.64560  0.45630  0.69880  Biso   1.000  H
  C51      1.0000 0.56180  0.35250  0.73830  Biso   1.000  C
  H51      1.0000 0.54590  0.34560  0.70170  Biso   1.000  H
  H52      1.0000 0.53300  0.34900  0.76640  Biso   1.000  H
  H53      1.0000 0.59110  0.32540  0.74560  Biso   1.000  H
  C52      1.0000 0.61260  0.42460  0.79720  Biso   1.000  C
  H54      1.0000 0.63790  0.39470  0.80740  Biso   1.000  H
  H55      1.0000 0.58320  0.42760  0.82490  Biso   1.000  H
  H56      1.0000 0.63300  0.45960  0.79540  Biso   1.000  H
  O5       1.0000 0.39430  0.93980  0.08580  Biso   1.000  O
  O6       1.0000 0.37480  0.88490  0.98858  Biso   1.000  O
  O7       1.0000 0.45620  0.53327  0.70790  Biso   1.000  O
  O8       1.0000 0.51530  0.43959  0.68190  Biso   1.000  O
  Cu2      1.0000 0.34944  0.95256  0.02171  Biso   1.000  Cu
  C53      1.0000 0.85290  0.99730  0.56100  Biso   1.000  C
  H57      1.0000 0.87600  0.98610  0.52970  Biso   1.000  H
  H58      1.0000 0.86990  0.02900  0.57970  Biso   1.000  H
  H59      1.0000 0.81610  0.00770  0.54750  Biso   1.000  H
  C54      1.0000 0.82960  0.96770  0.65850  Biso   1.000  C
  H60      1.0000 0.84380  0.00470  0.66670  Biso   1.000  H
  H61      1.0000 0.84410  0.94140  0.68550  Biso   1.000  H
  H62      1.0000 0.78920  0.96810  0.66040  Biso   1.000  H
  C55      1.0000 0.80640  0.91410  0.57670  Biso   1.000  C
  H63      1.0000 0.77150  0.93430  0.57260  Biso   1.000  H
  H64      1.0000 0.80080  0.88230  0.60110  Biso   1.000  H
  H65      1.0000 0.81890  0.90120  0.54050  Biso   1.000  H
  C56      1.0000 0.84780  0.95050  0.60040  Biso   1.000  C
  C57      1.0000 0.90300  0.92130  0.60450  Biso   1.000  C
  C58      1.0000 0.93960  0.92460  0.64900  Biso   1.000  C
  H66      1.0000 0.92620  0.94310  0.68090  Biso   1.000  H
  C59      1.0000 0.99120  0.90490  0.65240  Biso   1.000  C
  C60      1.0000 0.02620  0.91580  0.69870  Biso   1.000  C
  C61      1.0000 0.08020  0.90040  0.69690  Biso   1.000  C
  H67      1.0000 0.09390  0.88040  0.66610  Biso   1.000  H
  C62      1.0000 0.11580  0.91410  0.74100  Biso   1.000  C
  H68      1.0000 0.15380  0.90570  0.73650  Biso   1.000  H
  C63      1.0000 0.10030  0.93840  0.78970  Biso   1.000  C
  C64      1.0000 0.04390  0.95210  0.78910  Biso   1.000  C
  H69      1.0000 0.02950  0.96920  0.82140  Biso   1.000  H
  C65      1.0000 0.00740  0.94310  0.74630  Biso   1.000  C
  H70      1.0000 0.97020  0.95520  0.74890  Biso   1.000  H
  C66      1.0000 0.13890  0.94950  0.83480  Biso   1.000  C
  C67      1.0000 0.18550  0.92520  0.83890  Biso   1.000  C
  H71      1.0000 0.19640  0.90090  0.81010  Biso   1.000  H
  C68      1.0000 0.22100  0.93240  0.88290  Biso   1.000  C
  H72      1.0000 0.25160  0.90850  0.88820  Biso   1.000  H
  C69      1.0000 0.21040  0.97660  0.92010  Biso   1.000  C
  C70      1.0000 0.16400  0.00810  0.91110  Biso   1.000  C
  H73      1.0000 0.15700  0.03930  0.93400  Biso   1.000  H
  C71      1.0000 0.12680  0.99500  0.86890  Biso   1.000  C
  H74      1.0000 0.09430  0.01620  0.86340  Biso   1.000  H
  C72      1.0000 0.25040  0.98540  0.96670  Biso   1.000  C
  C73      1.0000 0.24050  0.02900  0.00530  Biso   1.000  C
  H75      1.0000 0.20890  0.05160  0.99930  Biso   1.000  H
  C74      1.0000 0.27330  0.04090  0.05070  Biso   1.000  C
  C75      1.0000 0.25990  0.08680  0.08780  Biso   1.000  C
  C76      1.0000 0.30400  0.12930  0.08060  Biso   1.000  C
  H76      1.0000 0.34030  0.11190  0.08490  Biso   1.000  H
  H77      1.0000 0.29950  0.15830  0.10850  Biso   1.000  H
  H78      1.0000 0.30120  0.14560  0.04370  Biso   1.000  H
  C77      1.0000 0.26170  0.06180  0.14750  Biso   1.000  C
  H79      1.0000 0.29830  0.04590  0.15440  Biso   1.000  H
  H80      1.0000 0.23360  0.03300  0.15100  Biso   1.000  H
  H81      1.0000 0.25440  0.09110  0.17460  Biso   1.000  H
  C78      1.0000 0.20280  0.11260  0.07540  Biso   1.000  C
  H82      1.0000 0.19260  0.13790  0.10530  Biso   1.000  H
  H83      1.0000 0.17510  0.08320  0.07240  Biso   1.000  H
  H84      1.0000 0.20460  0.13300  0.04040  Biso   1.000  H
  O9       1.0000 0.91420  0.89430  0.56020  Biso   1.000  O
  O10      1.0000 0.01142  0.87480  0.61510  Biso   1.000  O
  O11      1.0000 0.29210  0.95620  0.96673  Biso   1.000  O
  O12      1.0000 0.31810  0.01530  0.06041  Biso   1.000  O
  Cu3      1.0000 0.97829  0.84944  0.54744  Biso   1.000  Cu
  C79      1.0000 0.06100  0.64710  0.00270  Biso   1.000  C
  H85      1.0000 0.02970  0.62400  0.01390  Biso   1.000  H
  H86      1.0000 0.07970  0.63010  0.97100  Biso   1.000  H
  H87      1.0000 0.04750  0.68390  0.99230  Biso   1.000  H
  C80      1.0000 0.15850  0.67040  0.03230  Biso   1.000  C
  H88      1.0000 0.16670  0.65620  0.99530  Biso   1.000  H
  H89      1.0000 0.18550  0.65590  0.05860  Biso   1.000  H
  H90      1.0000 0.16040  0.71080  0.03190  Biso   1.000  H
  C81      1.0000 0.07670  0.69360  0.08590  Biso   1.000  C
  H91      1.0000 0.07260  0.72850  0.06570  Biso   1.000  H
  H92      1.0000 0.10110  0.69920  0.11770  Biso   1.000  H
  H93      1.0000 0.04050  0.68110  0.09880  Biso   1.000  H
  C82      1.0000 0.10040  0.65220  0.04950  Biso   1.000  C
  C83      1.0000 0.10450  0.59700  0.07870  Biso   1.000  C
  C84      1.0000 0.14900  0.56040  0.07540  Biso   1.000  C
  H94      1.0000 0.18090  0.57380  0.05690  Biso   1.000  H
  C85      1.0000 0.15240  0.50880  0.09510  Biso   1.000  C
  C86      1.0000 0.19870  0.47380  0.08420  Biso   1.000  C
  C87      1.0000 0.19690  0.41980  0.09960  Biso   1.000  C
  H95      1.0000 0.16610  0.40610  0.11960  Biso   1.000  H
  C88      1.0000 0.24100  0.38420  0.08590  Biso   1.000  C
  H96      1.0000 0.23650  0.34620  0.09430  Biso   1.000  H
  C89      1.0000 0.28970  0.39970  0.06160  Biso   1.000  C
  C90      1.0000 0.28910  0.45610  0.04790  Biso   1.000  C
  H97      1.0000 0.32140  0.47050  0.03080  Biso   1.000  H
  C91      1.0000 0.24630  0.49260  0.05690  Biso   1.000  C
  H98      1.0000 0.24890  0.52980  0.04480  Biso   1.000  H
  C92      1.0000 0.33480  0.36110  0.05050  Biso   1.000  C
  C93      1.0000 0.33890  0.31450  0.07480  Biso   1.000  C
  H99      1.0000 0.31010  0.30360  0.09910  Biso   1.000  H
  C94      1.0000 0.38290  0.27900  0.06760  Biso   1.000  C
  H100     1.0000 0.38820  0.24840  0.09150  Biso   1.000  H
  C95      1.0000 0.42010  0.28960  0.02340  Biso   1.000  C
  C96      1.0000 0.41110  0.33600  0.99190  Biso   1.000  C
  H101     1.0000 0.43400  0.34300  0.96070  Biso   1.000  H
  C97      1.0000 0.36890  0.37320  0.00500  Biso   1.000  C
  H102     1.0000 0.36340  0.40570  0.98380  Biso   1.000  H
  C98      1.0000 0.46670  0.24960  0.01460  Biso   1.000  C
  C99      1.0000 0.50530  0.25950  0.97100  Biso   1.000  C
  H103     1.0000 0.49930  0.29110  0.94840  Biso   1.000  H
  C100     1.0000 0.55070  0.22670  0.95910  Biso   1.000  C
  C101     1.0000 0.58780  0.24010  0.91320  Biso   1.000  C
  C102     1.0000 0.58060  0.19600  0.87070  Biso   1.000  C
  H104     1.0000 0.58490  0.15970  0.88810  Biso   1.000  H
  H105     1.0000 0.60850  0.20050  0.84170  Biso   1.000  H
  H106     1.0000 0.54370  0.19880  0.85440  Biso   1.000  H
  C103     1.0000 0.64750  0.23830  0.93820  Biso   1.000  C
  H107     1.0000 0.65440  0.20170  0.95410  Biso   1.000  H
  H108     1.0000 0.65100  0.26640  0.96700  Biso   1.000  H
  H109     1.0000 0.67460  0.24560  0.90890  Biso   1.000  H
  C104     1.0000 0.57540  0.29720  0.88740  Biso   1.000  C
  H110     1.0000 0.60530  0.30740  0.86210  Biso   1.000  H
  H111     1.0000 0.57240  0.32490  0.91680  Biso   1.000  H
  H112     1.0000 0.54040  0.29540  0.86700  Biso   1.000  H
  O13      1.0000 0.06020  0.58580  0.10570  Biso   1.000  O
  O14      1.0000 0.11510  0.48858  0.12520  Biso   1.000  O
  O15      1.0000 0.46673  0.20790  0.04380  Biso   1.000  O
  O16      1.0000 0.56041  0.18190  0.98470  Biso   1.000  O
  Cu4      1.0000 0.04744  0.52171  0.15056  Biso   1.000  Cu
  C105     1.0000 0.00270  0.06100  0.64710  Biso   1.000  C
  H113     1.0000 0.01390  0.02970  0.62400  Biso   1.000  H
  H114     1.0000 0.97100  0.07970  0.63010  Biso   1.000  H
  H115     1.0000 0.99230  0.04750  0.68390  Biso   1.000  H
  C106     1.0000 0.03230  0.15850  0.67040  Biso   1.000  C
  H116     1.0000 0.99530  0.16670  0.65620  Biso   1.000  H
  H117     1.0000 0.05860  0.18550  0.65590  Biso   1.000  H
  H118     1.0000 0.03190  0.16040  0.71080  Biso   1.000  H
  C107     1.0000 0.08590  0.07670  0.69360  Biso   1.000  C
  H119     1.0000 0.06570  0.07260  0.72850  Biso   1.000  H
  H120     1.0000 0.11770  0.10110  0.69920  Biso   1.000  H
  H121     1.0000 0.09880  0.04050  0.68110  Biso   1.000  H
  C108     1.0000 0.04950  0.10040  0.65220  Biso   1.000  C
  C109     1.0000 0.07870  0.10450  0.59700  Biso   1.000  C
  C110     1.0000 0.07540  0.14900  0.56040  Biso   1.000  C
  H122     1.0000 0.05690  0.18090  0.57380  Biso   1.000  H
  C111     1.0000 0.09510  0.15240  0.50880  Biso   1.000  C
  C112     1.0000 0.08420  0.19870  0.47380  Biso   1.000  C
  C113     1.0000 0.09960  0.19690  0.41980  Biso   1.000  C
  H123     1.0000 0.11960  0.16610  0.40610  Biso   1.000  H
  C114     1.0000 0.08590  0.24100  0.38420  Biso   1.000  C
  H124     1.0000 0.09430  0.23650  0.34620  Biso   1.000  H
  C115     1.0000 0.06160  0.28970  0.39970  Biso   1.000  C
  C116     1.0000 0.04790  0.28910  0.45610  Biso   1.000  C
  H125     1.0000 0.03080  0.32140  0.47050  Biso   1.000  H
  C117     1.0000 0.05690  0.24630  0.49260  Biso   1.000  C
  H126     1.0000 0.04480  0.24890  0.52980  Biso   1.000  H
  C118     1.0000 0.05050  0.33480  0.36110  Biso   1.000  C
  C119     1.0000 0.07480  0.33890  0.31450  Biso   1.000  C
  H127     1.0000 0.09910  0.31010  0.30360  Biso   1.000  H
  C120     1.0000 0.06760  0.38290  0.27900  Biso   1.000  C
  H128     1.0000 0.09150  0.38820  0.24840  Biso   1.000  H
  C121     1.0000 0.02340  0.42010  0.28960  Biso   1.000  C
  C122     1.0000 0.99190  0.41110  0.33600  Biso   1.000  C
  H129     1.0000 0.96070  0.43400  0.34300  Biso   1.000  H
  C123     1.0000 0.00500  0.36890  0.37320  Biso   1.000  C
  H130     1.0000 0.98380  0.36340  0.40570  Biso   1.000  H
  C124     1.0000 0.01460  0.46670  0.24960  Biso   1.000  C
  C125     1.0000 0.97100  0.50530  0.25950  Biso   1.000  C
  H131     1.0000 0.94840  0.49930  0.29110  Biso   1.000  H
  C126     1.0000 0.95910  0.55070  0.22670  Biso   1.000  C
  C127     1.0000 0.91320  0.58780  0.24010  Biso   1.000  C
  C128     1.0000 0.87070  0.58060  0.19600  Biso   1.000  C
  H132     1.0000 0.88810  0.58490  0.15970  Biso   1.000  H
  H133     1.0000 0.84170  0.60850  0.20050  Biso   1.000  H
  H134     1.0000 0.85440  0.54370  0.19880  Biso   1.000  H
  C129     1.0000 0.93820  0.64750  0.23830  Biso   1.000  C
  H135     1.0000 0.95410  0.65440  0.20170  Biso   1.000  H
  H136     1.0000 0.96700  0.65100  0.26640  Biso   1.000  H
  H137     1.0000 0.90890  0.67460  0.24560  Biso   1.000  H
  C130     1.0000 0.88740  0.57540  0.29720  Biso   1.000  C
  H138     1.0000 0.86210  0.60530  0.30740  Biso   1.000  H
  H139     1.0000 0.91680  0.57240  0.32490  Biso   1.000  H
  H140     1.0000 0.86700  0.54040  0.29540  Biso   1.000  H
  O17      1.0000 0.10570  0.06020  0.58580  Biso   1.000  O
  O18      1.0000 0.12520  0.11510  0.48858  Biso   1.000  O
  O19      1.0000 0.04380  0.46673  0.20790  Biso   1.000  O
  O20      1.0000 0.98470  0.56041  0.18190  Biso   1.000  O
  Cu5      1.0000 0.15056  0.04744  0.52171  Biso   1.000  Cu
  C131     1.0000 0.64710  0.00270  0.06100  Biso   1.000  C
  H141     1.0000 0.62400  0.01390  0.02970  Biso   1.000  H
  H142     1.0000 0.63010  0.97100  0.07970  Biso   1.000  H
  H143     1.0000 0.68390  0.99230  0.04750  Biso   1.000  H
  C132     1.0000 0.67040  0.03230  0.15850  Biso   1.000  C
  H144     1.0000 0.65620  0.99530  0.16670  Biso   1.000  H
  H145     1.0000 0.65590  0.05860  0.18550  Biso   1.000  H
  H146     1.0000 0.71080  0.03190  0.16040  Biso   1.000  H
  C133     1.0000 0.69360  0.08590  0.07670  Biso   1.000  C
  H147     1.0000 0.72850  0.06570  0.07260  Biso   1.000  H
  H148     1.0000 0.69920  0.11770  0.10110  Biso   1.000  H
  H149     1.0000 0.68110  0.09880  0.04050  Biso   1.000  H
  C134     1.0000 0.65220  0.04950  0.10040  Biso   1.000  C
  C135     1.0000 0.59700  0.07870  0.10450  Biso   1.000  C
  C136     1.0000 0.56040  0.07540  0.14900  Biso   1.000  C
  H150     1.0000 0.57380  0.05690  0.18090  Biso   1.000  H
  C137     1.0000 0.50880  0.09510  0.15240  Biso   1.000  C
  C138     1.0000 0.47380  0.08420  0.19870  Biso   1.000  C
  C139     1.0000 0.41980  0.09960  0.19690  Biso   1.000  C
  H151     1.0000 0.40610  0.11960  0.16610  Biso   1.000  H
  C140     1.0000 0.38420  0.08590  0.24100  Biso   1.000  C
  H152     1.0000 0.34620  0.09430  0.23650  Biso   1.000  H
  C141     1.0000 0.39970  0.06160  0.28970  Biso   1.000  C
  C142     1.0000 0.45610  0.04790  0.28910  Biso   1.000  C
  H153     1.0000 0.47050  0.03080  0.32140  Biso   1.000  H
  C143     1.0000 0.49260  0.05690  0.24630  Biso   1.000  C
  H154     1.0000 0.52980  0.04480  0.24890  Biso   1.000  H
  C144     1.0000 0.36110  0.05050  0.33480  Biso   1.000  C
  C145     1.0000 0.31450  0.07480  0.33890  Biso   1.000  C
  H155     1.0000 0.30360  0.09910  0.31010  Biso   1.000  H
  C146     1.0000 0.27900  0.06760  0.38290  Biso   1.000  C
  H156     1.0000 0.24840  0.09150  0.38820  Biso   1.000  H
  C147     1.0000 0.28960  0.02340  0.42010  Biso   1.000  C
  C148     1.0000 0.33600  0.99190  0.41110  Biso   1.000  C
  H157     1.0000 0.34300  0.96070  0.43400  Biso   1.000  H
  C149     1.0000 0.37320  0.00500  0.36890  Biso   1.000  C
  H158     1.0000 0.40570  0.98380  0.36340  Biso   1.000  H
  C150     1.0000 0.24960  0.01460  0.46670  Biso   1.000  C
  C151     1.0000 0.25950  0.97100  0.50530  Biso   1.000  C
  H159     1.0000 0.29110  0.94840  0.49930  Biso   1.000  H
  C152     1.0000 0.22670  0.95910  0.55070  Biso   1.000  C
  C153     1.0000 0.24010  0.91320  0.58780  Biso   1.000  C
  C154     1.0000 0.19600  0.87070  0.58060  Biso   1.000  C
  H160     1.0000 0.15970  0.88810  0.58490  Biso   1.000  H
  H161     1.0000 0.20050  0.84170  0.60850  Biso   1.000  H
  H162     1.0000 0.19880  0.85440  0.54370  Biso   1.000  H
  C155     1.0000 0.23830  0.93820  0.64750  Biso   1.000  C
  H163     1.0000 0.20170  0.95410  0.65440  Biso   1.000  H
  H164     1.0000 0.26640  0.96700  0.65100  Biso   1.000  H
  H165     1.0000 0.24560  0.90890  0.67460  Biso   1.000  H
  C156     1.0000 0.29720  0.88740  0.57540  Biso   1.000  C
  H166     1.0000 0.30740  0.86210  0.60530  Biso   1.000  H
  H167     1.0000 0.32490  0.91680  0.57240  Biso   1.000  H
  H168     1.0000 0.29540  0.86700  0.54040  Biso   1.000  H
  O21      1.0000 0.58580  0.10570  0.06020  Biso   1.000  O
  O22      1.0000 0.48858  0.12520  0.11510  Biso   1.000  O
  O23      1.0000 0.20790  0.04380  0.46673  Biso   1.000  O
  O24      1.0000 0.18190  0.98470  0.56041  Biso   1.000  O
  Cu6      1.0000 0.52171  0.15056  0.04744  Biso   1.000  Cu
  C157     1.0000 0.56100  0.85290  0.99730  Biso   1.000  C
  H169     1.0000 0.52970  0.87600  0.98610  Biso   1.000  H
  H170     1.0000 0.57970  0.86990  0.02900  Biso   1.000  H
  H171     1.0000 0.54750  0.81610  0.00770  Biso   1.000  H
  C158     1.0000 0.65850  0.82960  0.96770  Biso   1.000  C
  H172     1.0000 0.66670  0.84380  0.00470  Biso   1.000  H
  H173     1.0000 0.68550  0.84410  0.94140  Biso   1.000  H
  H174     1.0000 0.66040  0.78920  0.96810  Biso   1.000  H
  C159     1.0000 0.57670  0.80640  0.91410  Biso   1.000  C
  H175     1.0000 0.57260  0.77150  0.93430  Biso   1.000  H
  H176     1.0000 0.60110  0.80080  0.88230  Biso   1.000  H
  H177     1.0000 0.54050  0.81890  0.90120  Biso   1.000  H
  C160     1.0000 0.60040  0.84780  0.95050  Biso   1.000  C
  C161     1.0000 0.60450  0.90300  0.92130  Biso   1.000  C
  C162     1.0000 0.64900  0.93960  0.92460  Biso   1.000  C
  H178     1.0000 0.68090  0.92620  0.94310  Biso   1.000  H
  C163     1.0000 0.65240  0.99120  0.90490  Biso   1.000  C
  C164     1.0000 0.69870  0.02620  0.91580  Biso   1.000  C
  C165     1.0000 0.69690  0.08020  0.90040  Biso   1.000  C
  H179     1.0000 0.66610  0.09390  0.88040  Biso   1.000  H
  C166     1.0000 0.74100  0.11580  0.91410  Biso   1.000  C
  H180     1.0000 0.73650  0.15380  0.90570  Biso   1.000  H
  C167     1.0000 0.78970  0.10030  0.93840  Biso   1.000  C
  C168     1.0000 0.78910  0.04390  0.95210  Biso   1.000  C
  H181     1.0000 0.82140  0.02950  0.96920  Biso   1.000  H
  C169     1.0000 0.74630  0.00740  0.94310  Biso   1.000  C
  H182     1.0000 0.74890  0.97020  0.95520  Biso   1.000  H
  C170     1.0000 0.83480  0.13890  0.94950  Biso   1.000  C
  C171     1.0000 0.83890  0.18550  0.92520  Biso   1.000  C
  H183     1.0000 0.81010  0.19640  0.90090  Biso   1.000  H
  C172     1.0000 0.88290  0.22100  0.93240  Biso   1.000  C
  H184     1.0000 0.88820  0.25160  0.90850  Biso   1.000  H
  C173     1.0000 0.92010  0.21040  0.97660  Biso   1.000  C
  C174     1.0000 0.91110  0.16400  0.00810  Biso   1.000  C
  H185     1.0000 0.93400  0.15700  0.03930  Biso   1.000  H
  C175     1.0000 0.86890  0.12680  0.99500  Biso   1.000  C
  H186     1.0000 0.86340  0.09430  0.01620  Biso   1.000  H
  C176     1.0000 0.96670  0.25040  0.98540  Biso   1.000  C
  C177     1.0000 0.00530  0.24050  0.02900  Biso   1.000  C
  H187     1.0000 0.99930  0.20890  0.05160  Biso   1.000  H
  C178     1.0000 0.05070  0.27330  0.04090  Biso   1.000  C
  C179     1.0000 0.08780  0.25990  0.08680  Biso   1.000  C
  C180     1.0000 0.08060  0.30400  0.12930  Biso   1.000  C
  H188     1.0000 0.08490  0.34030  0.11190  Biso   1.000  H
  H189     1.0000 0.10850  0.29950  0.15830  Biso   1.000  H
  H190     1.0000 0.04370  0.30120  0.14560  Biso   1.000  H
  C181     1.0000 0.14750  0.26170  0.06180  Biso   1.000  C
  H191     1.0000 0.15440  0.29830  0.04590  Biso   1.000  H
  H192     1.0000 0.15100  0.23360  0.03300  Biso   1.000  H
  H193     1.0000 0.17460  0.25440  0.09110  Biso   1.000  H
  C182     1.0000 0.07540  0.20280  0.11260  Biso   1.000  C
  H194     1.0000 0.10530  0.19260  0.13790  Biso   1.000  H
  H195     1.0000 0.07240  0.17510  0.08320  Biso   1.000  H
  H196     1.0000 0.04040  0.20460  0.13300  Biso   1.000  H
  O25      1.0000 0.56020  0.91420  0.89430  Biso   1.000  O
  O26      1.0000 0.61510  0.01142  0.87480  Biso   1.000  O
  O27      1.0000 0.96673  0.29210  0.95620  Biso   1.000  O
  O28      1.0000 0.06041  0.31810  0.01530  Biso   1.000  O
  Cu7      1.0000 0.54744  0.97829  0.84944  Biso   1.000  Cu
  C183     1.0000 0.50270  0.43900  0.35290  Biso   1.000  C
  H197     1.0000 0.51390  0.47030  0.37600  Biso   1.000  H
  H198     1.0000 0.47100  0.42030  0.36990  Biso   1.000  H
  H199     1.0000 0.49230  0.45250  0.31610  Biso   1.000  H
  C184     1.0000 0.53230  0.34150  0.32960  Biso   1.000  C
  H200     1.0000 0.49530  0.33330  0.34380  Biso   1.000  H
  H201     1.0000 0.55860  0.31450  0.34410  Biso   1.000  H
  H202     1.0000 0.53190  0.33960  0.28920  Biso   1.000  H
  C185     1.0000 0.58590  0.42330  0.30640  Biso   1.000  C
  H203     1.0000 0.56570  0.42740  0.27150  Biso   1.000  H
  H204     1.0000 0.61770  0.39890  0.30080  Biso   1.000  H
  H205     1.0000 0.59880  0.45950  0.31890  Biso   1.000  H
  C186     1.0000 0.54950  0.39960  0.34780  Biso   1.000  C
  C187     1.0000 0.57870  0.39550  0.40300  Biso   1.000  C
  C188     1.0000 0.57540  0.35100  0.43960  Biso   1.000  C
  H206     1.0000 0.55690  0.31910  0.42620  Biso   1.000  H
  C189     1.0000 0.59510  0.34760  0.49120  Biso   1.000  C
  C190     1.0000 0.58420  0.30130  0.52620  Biso   1.000  C
  C191     1.0000 0.59960  0.30310  0.58020  Biso   1.000  C
  H207     1.0000 0.61960  0.33390  0.59390  Biso   1.000  H
  C192     1.0000 0.58590  0.25900  0.61580  Biso   1.000  C
  H208     1.0000 0.59430  0.26350  0.65380  Biso   1.000  H
  C193     1.0000 0.56160  0.21030  0.60030  Biso   1.000  C
  C194     1.0000 0.54790  0.21090  0.54390  Biso   1.000  C
  H209     1.0000 0.53080  0.17860  0.52950  Biso   1.000  H
  C195     1.0000 0.55690  0.25370  0.50740  Biso   1.000  C
  H210     1.0000 0.54480  0.25110  0.47020  Biso   1.000  H
  C196     1.0000 0.55050  0.16520  0.63890  Biso   1.000  C
  C197     1.0000 0.57480  0.16110  0.68550  Biso   1.000  C
  H211     1.0000 0.59910  0.18990  0.69640  Biso   1.000  H
  C198     1.0000 0.56760  0.11710  0.72100  Biso   1.000  C
  H212     1.0000 0.59150  0.11180  0.75160  Biso   1.000  H
  C199     1.0000 0.52340  0.07990  0.71040  Biso   1.000  C
  C200     1.0000 0.49190  0.08890  0.66400  Biso   1.000  C
  H213     1.0000 0.46070  0.06600  0.65700  Biso   1.000  H
  C201     1.0000 0.50500  0.13110  0.62680  Biso   1.000  C
  H214     1.0000 0.48380  0.13660  0.59430  Biso   1.000  H
  C202     1.0000 0.51460  0.03330  0.75040  Biso   1.000  C
  C203     1.0000 0.47100  0.99470  0.74050  Biso   1.000  C
  H215     1.0000 0.44840  0.00070  0.70890  Biso   1.000  H
  C204     1.0000 0.45910  0.94930  0.77330  Biso   1.000  C
  C205     1.0000 0.41320  0.91220  0.75990  Biso   1.000  C
  C206     1.0000 0.37070  0.91940  0.80400  Biso   1.000  C
  H216     1.0000 0.38810  0.91510  0.84030  Biso   1.000  H
  H217     1.0000 0.34170  0.89150  0.79950  Biso   1.000  H
  H218     1.0000 0.35440  0.95630  0.80120  Biso   1.000  H
  C207     1.0000 0.43820  0.85250  0.76170  Biso   1.000  C
  H219     1.0000 0.45410  0.84560  0.79830  Biso   1.000  H
  H220     1.0000 0.46700  0.84900  0.73360  Biso   1.000  H
  H221     1.0000 0.40890  0.82540  0.75440  Biso   1.000  H
  C208     1.0000 0.38740  0.92460  0.70280  Biso   1.000  C
  H222     1.0000 0.36210  0.89470  0.69260  Biso   1.000  H
  H223     1.0000 0.41680  0.92760  0.67510  Biso   1.000  H
  H224     1.0000 0.36700  0.95960  0.70460  Biso   1.000  H
  O29      1.0000 0.60570  0.43980  0.41420  Biso   1.000  O
  O30      1.0000 0.62520  0.38490  0.51142  Biso   1.000  O
  O31      1.0000 0.54380  0.03327  0.79210  Biso   1.000  O
  O32      1.0000 0.48470  0.93959  0.81810  Biso   1.000  O
  Cu8      1.0000 0.65056  0.45256  0.47829  Biso   1.000  Cu
  C209     1.0000 0.14710  0.49730  0.93900  Biso   1.000  C
  H225     1.0000 0.12400  0.48610  0.97030  Biso   1.000  H
  H226     1.0000 0.13010  0.52900  0.92030  Biso   1.000  H
  H227     1.0000 0.18390  0.50770  0.95250  Biso   1.000  H
  C210     1.0000 0.17040  0.46770  0.84150  Biso   1.000  C
  H228     1.0000 0.15620  0.50470  0.83330  Biso   1.000  H
  H229     1.0000 0.15590  0.44140  0.81450  Biso   1.000  H
  H230     1.0000 0.21080  0.46810  0.83960  Biso   1.000  H
  C211     1.0000 0.19360  0.41410  0.92330  Biso   1.000  C
  H231     1.0000 0.22850  0.43430  0.92740  Biso   1.000  H
  H232     1.0000 0.19920  0.38230  0.89890  Biso   1.000  H
  H233     1.0000 0.18110  0.40120  0.95950  Biso   1.000  H
  C212     1.0000 0.15220  0.45050  0.89960  Biso   1.000  C
  C213     1.0000 0.09700  0.42130  0.89550  Biso   1.000  C
  C214     1.0000 0.06040  0.42460  0.85100  Biso   1.000  C
  H234     1.0000 0.07380  0.44310  0.81910  Biso   1.000  H
  C215     1.0000 0.00880  0.40490  0.84760  Biso   1.000  C
  C216     1.0000 0.97380  0.41580  0.80130  Biso   1.000  C
  C217     1.0000 0.91980  0.40040  0.80310  Biso   1.000  C
  H235     1.0000 0.90610  0.38040  0.83390  Biso   1.000  H
  C218     1.0000 0.88420  0.41410  0.75900  Biso   1.000  C
  H236     1.0000 0.84620  0.40570  0.76350  Biso   1.000  H
  C219     1.0000 0.89970  0.43840  0.71030  Biso   1.000  C
  C220     1.0000 0.95610  0.45210  0.71090  Biso   1.000  C
  H237     1.0000 0.97050  0.46920  0.67860  Biso   1.000  H
  C221     1.0000 0.99260  0.44310  0.75370  Biso   1.000  C
  H238     1.0000 0.02980  0.45520  0.75110  Biso   1.000  H
  C222     1.0000 0.86110  0.44950  0.66520  Biso   1.000  C
  C223     1.0000 0.81450  0.42520  0.66110  Biso   1.000  C
  H239     1.0000 0.80360  0.40090  0.68990  Biso   1.000  H
  C224     1.0000 0.77900  0.43240  0.61710  Biso   1.000  C
  H240     1.0000 0.74840  0.40850  0.61180  Biso   1.000  H
  C225     1.0000 0.78960  0.47660  0.57990  Biso   1.000  C
  C226     1.0000 0.83600  0.50810  0.58890  Biso   1.000  C
  H241     1.0000 0.84300  0.53930  0.56600  Biso   1.000  H
  C227     1.0000 0.87320  0.49500  0.63110  Biso   1.000  C
  H242     1.0000 0.90570  0.51620  0.63660  Biso   1.000  H
  C228     1.0000 0.74960  0.48540  0.53330  Biso   1.000  C
  C229     1.0000 0.75950  0.52900  0.49470  Biso   1.000  C
  H243     1.0000 0.79110  0.55160  0.50070  Biso   1.000  H
  C230     1.0000 0.72670  0.54090  0.44930  Biso   1.000  C
  C231     1.0000 0.74010  0.58680  0.41220  Biso   1.000  C
  C232     1.0000 0.69600  0.62930  0.41940  Biso   1.000  C
  H244     1.0000 0.65970  0.61190  0.41510  Biso   1.000  H
  H245     1.0000 0.70050  0.65830  0.39150  Biso   1.000  H
  H246     1.0000 0.69880  0.64560  0.45630  Biso   1.000  H
  C233     1.0000 0.73830  0.56180  0.35250  Biso   1.000  C
  H247     1.0000 0.70170  0.54590  0.34560  Biso   1.000  H
  H248     1.0000 0.76640  0.53300  0.34900  Biso   1.000  H
  H249     1.0000 0.74560  0.59110  0.32540  Biso   1.000  H
  C234     1.0000 0.79720  0.61260  0.42460  Biso   1.000  C
  H250     1.0000 0.80740  0.63790  0.39470  Biso   1.000  H
  H251     1.0000 0.82490  0.58320  0.42760  Biso   1.000  H
  H252     1.0000 0.79540  0.63300  0.45960  Biso   1.000  H
  O33      1.0000 0.08580  0.39430  0.93980  Biso   1.000  O
  O34      1.0000 0.98858  0.37480  0.88490  Biso   1.000  O
  O35      1.0000 0.70790  0.45620  0.53327  Biso   1.000  O
  O36      1.0000 0.68190  0.51530  0.43959  Biso   1.000  O
  Cu9      1.0000 0.02171  0.34944  0.95256  Biso   1.000  Cu
  C235     1.0000 0.93900  0.14710  0.49730  Biso   1.000  C
  H253     1.0000 0.97030  0.12400  0.48610  Biso   1.000  H
  H254     1.0000 0.92030  0.13010  0.52900  Biso   1.000  H
  H255     1.0000 0.95250  0.18390  0.50770  Biso   1.000  H
  C236     1.0000 0.84150  0.17040  0.46770  Biso   1.000  C
  H256     1.0000 0.83330  0.15620  0.50470  Biso   1.000  H
  H257     1.0000 0.81450  0.15590  0.44140  Biso   1.000  H
  H258     1.0000 0.83960  0.21080  0.46810  Biso   1.000  H
  C237     1.0000 0.92330  0.19360  0.41410  Biso   1.000  C
  H259     1.0000 0.92740  0.22850  0.43430  Biso   1.000  H
  H260     1.0000 0.89890  0.19920  0.38230  Biso   1.000  H
  H261     1.0000 0.95950  0.18110  0.40120  Biso   1.000  H
  C238     1.0000 0.89960  0.15220  0.45050  Biso   1.000  C
  C239     1.0000 0.89550  0.09700  0.42130  Biso   1.000  C
  C240     1.0000 0.85100  0.06040  0.42460  Biso   1.000  C
  H262     1.0000 0.81910  0.07380  0.44310  Biso   1.000  H
  C241     1.0000 0.84760  0.00880  0.40490  Biso   1.000  C
  C242     1.0000 0.80130  0.97380  0.41580  Biso   1.000  C
  C243     1.0000 0.80310  0.91980  0.40040  Biso   1.000  C
  H263     1.0000 0.83390  0.90610  0.38040  Biso   1.000  H
  C244     1.0000 0.75900  0.88420  0.41410  Biso   1.000  C
  H264     1.0000 0.76350  0.84620  0.40570  Biso   1.000  H
  C245     1.0000 0.71030  0.89970  0.43840  Biso   1.000  C
  C246     1.0000 0.71090  0.95610  0.45210  Biso   1.000  C
  H265     1.0000 0.67860  0.97050  0.46920  Biso   1.000  H
  C247     1.0000 0.75370  0.99260  0.44310  Biso   1.000  C
  H266     1.0000 0.75110  0.02980  0.45520  Biso   1.000  H
  C248     1.0000 0.66520  0.86110  0.44950  Biso   1.000  C
  C249     1.0000 0.66110  0.81450  0.42520  Biso   1.000  C
  H267     1.0000 0.68990  0.80360  0.40090  Biso   1.000  H
  C250     1.0000 0.61710  0.77900  0.43240  Biso   1.000  C
  H268     1.0000 0.61180  0.74840  0.40850  Biso   1.000  H
  C251     1.0000 0.57990  0.78960  0.47660  Biso   1.000  C
  C252     1.0000 0.58890  0.83600  0.50810  Biso   1.000  C
  H269     1.0000 0.56600  0.84300  0.53930  Biso   1.000  H
  C253     1.0000 0.63110  0.87320  0.49500  Biso   1.000  C
  H270     1.0000 0.63660  0.90570  0.51620  Biso   1.000  H
  C254     1.0000 0.53330  0.74960  0.48540  Biso   1.000  C
  C255     1.0000 0.49470  0.75950  0.52900  Biso   1.000  C
  H271     1.0000 0.50070  0.79110  0.55160  Biso   1.000  H
  C256     1.0000 0.44930  0.72670  0.54090  Biso   1.000  C
  C257     1.0000 0.41220  0.74010  0.58680  Biso   1.000  C
  C258     1.0000 0.41940  0.69600  0.62930  Biso   1.000  C
  H272     1.0000 0.41510  0.65970  0.61190  Biso   1.000  H
  H273     1.0000 0.39150  0.70050  0.65830  Biso   1.000  H
  H274     1.0000 0.45630  0.69880  0.64560  Biso   1.000  H
  C259     1.0000 0.35250  0.73830  0.56180  Biso   1.000  C
  H275     1.0000 0.34560  0.70170  0.54590  Biso   1.000  H
  H276     1.0000 0.34900  0.76640  0.53300  Biso   1.000  H
  H277     1.0000 0.32540  0.74560  0.59110  Biso   1.000  H
  C260     1.0000 0.42460  0.79720  0.61260  Biso   1.000  C
  H278     1.0000 0.39470  0.80740  0.63790  Biso   1.000  H
  H279     1.0000 0.42760  0.82490  0.58320  Biso   1.000  H
  H280     1.0000 0.45960  0.79540  0.63300  Biso   1.000  H
  O37      1.0000 0.93980  0.08580  0.39430  Biso   1.000  O
  O38      1.0000 0.88490  0.98858  0.37480  Biso   1.000  O
  O39      1.0000 0.53327  0.70790  0.45620  Biso   1.000  O
  O40      1.0000 0.43959  0.68190  0.51530  Biso   1.000  O
  Cu10     1.0000 0.95256  0.02171  0.34944  Biso   1.000  Cu
  C261     1.0000 0.99730  0.56100  0.85290  Biso   1.000  C
  H281     1.0000 0.98610  0.52970  0.87600  Biso   1.000  H
  H282     1.0000 0.02900  0.57970  0.86990  Biso   1.000  H
  H283     1.0000 0.00770  0.54750  0.81610  Biso   1.000  H
  C262     1.0000 0.96770  0.65850  0.82960  Biso   1.000  C
  H284     1.0000 0.00470  0.66670  0.84380  Biso   1.000  H
  H285     1.0000 0.94140  0.68550  0.84410  Biso   1.000  H
  H286     1.0000 0.96810  0.66040  0.78920  Biso   1.000  H
  C263     1.0000 0.91410  0.57670  0.80640  Biso   1.000  C
  H287     1.0000 0.93430  0.57260  0.77150  Biso   1.000  H
  H288     1.0000 0.88230  0.60110  0.80080  Biso   1.000  H
  H289     1.0000 0.90120  0.54050  0.81890  Biso   1.000  H
  C264     1.0000 0.95050  0.60040  0.84780  Biso   1.000  C
  C265     1.0000 0.92130  0.60450  0.90300  Biso   1.000  C
  C266     1.0000 0.92460  0.64900  0.93960  Biso   1.000  C
  H290     1.0000 0.94310  0.68090  0.92620  Biso   1.000  H
  C267     1.0000 0.90490  0.65240  0.99120  Biso   1.000  C
  C268     1.0000 0.91580  0.69870  0.02620  Biso   1.000  C
  C269     1.0000 0.90040  0.69690  0.08020  Biso   1.000  C
  H291     1.0000 0.88040  0.66610  0.09390  Biso   1.000  H
  C270     1.0000 0.91410  0.74100  0.11580  Biso   1.000  C
  H292     1.0000 0.90570  0.73650  0.15380  Biso   1.000  H
  C271     1.0000 0.93840  0.78970  0.10030  Biso   1.000  C
  C272     1.0000 0.95210  0.78910  0.04390  Biso   1.000  C
  H293     1.0000 0.96920  0.82140  0.02950  Biso   1.000  H
  C273     1.0000 0.94310  0.74630  0.00740  Biso   1.000  C
  H294     1.0000 0.95520  0.74890  0.97020  Biso   1.000  H
  C274     1.0000 0.94950  0.83480  0.13890  Biso   1.000  C
  C275     1.0000 0.92520  0.83890  0.18550  Biso   1.000  C
  H295     1.0000 0.90090  0.81010  0.19640  Biso   1.000  H
  C276     1.0000 0.93240  0.88290  0.22100  Biso   1.000  C
  H296     1.0000 0.90850  0.88820  0.25160  Biso   1.000  H
  C277     1.0000 0.97660  0.92010  0.21040  Biso   1.000  C
  C278     1.0000 0.00810  0.91110  0.16400  Biso   1.000  C
  H297     1.0000 0.03930  0.93400  0.15700  Biso   1.000  H
  C279     1.0000 0.99500  0.86890  0.12680  Biso   1.000  C
  H298     1.0000 0.01620  0.86340  0.09430  Biso   1.000  H
  C280     1.0000 0.98540  0.96670  0.25040  Biso   1.000  C
  C281     1.0000 0.02900  0.00530  0.24050  Biso   1.000  C
  H299     1.0000 0.05160  0.99930  0.20890  Biso   1.000  H
  C282     1.0000 0.04090  0.05070  0.27330  Biso   1.000  C
  C283     1.0000 0.08680  0.08780  0.25990  Biso   1.000  C
  C284     1.0000 0.12930  0.08060  0.30400  Biso   1.000  C
  H300     1.0000 0.11190  0.08490  0.34030  Biso   1.000  H
  H301     1.0000 0.15830  0.10850  0.29950  Biso   1.000  H
  H302     1.0000 0.14560  0.04370  0.30120  Biso   1.000  H
  C285     1.0000 0.06180  0.14750  0.26170  Biso   1.000  C
  H303     1.0000 0.04590  0.15440  0.29830  Biso   1.000  H
  H304     1.0000 0.03300  0.15100  0.23360  Biso   1.000  H
  H305     1.0000 0.09110  0.17460  0.25440  Biso   1.000  H
  C286     1.0000 0.11260  0.07540  0.20280  Biso   1.000  C
  H306     1.0000 0.13790  0.10530  0.19260  Biso   1.000  H
  H307     1.0000 0.08320  0.07240  0.17510  Biso   1.000  H
  H308     1.0000 0.13300  0.04040  0.20460  Biso   1.000  H
  O41      1.0000 0.89430  0.56020  0.91420  Biso   1.000  O
  O42      1.0000 0.87480  0.61510  0.01142  Biso   1.000  O
  O43      1.0000 0.95620  0.96673  0.29210  Biso   1.000  O
  O44      1.0000 0.01530  0.06041  0.31810  Biso   1.000  O
  Cu11     1.0000 0.84944  0.54744  0.97829  Biso   1.000  Cu
  C287     1.0000 0.35290  0.50270  0.43900  Biso   1.000  C
  H309     1.0000 0.37600  0.51390  0.47030  Biso   1.000  H
  H310     1.0000 0.36990  0.47100  0.42030  Biso   1.000  H
  H311     1.0000 0.31610  0.49230  0.45250  Biso   1.000  H
  C288     1.0000 0.32960  0.53230  0.34150  Biso   1.000  C
  H312     1.0000 0.34380  0.49530  0.33330  Biso   1.000  H
  H313     1.0000 0.34410  0.55860  0.31450  Biso   1.000  H
  H314     1.0000 0.28920  0.53190  0.33960  Biso   1.000  H
  C289     1.0000 0.30640  0.58590  0.42330  Biso   1.000  C
  H315     1.0000 0.27150  0.56570  0.42740  Biso   1.000  H
  H316     1.0000 0.30080  0.61770  0.39890  Biso   1.000  H
  H317     1.0000 0.31890  0.59880  0.45950  Biso   1.000  H
  C290     1.0000 0.34780  0.54950  0.39960  Biso   1.000  C
  C291     1.0000 0.40300  0.57870  0.39550  Biso   1.000  C
  C292     1.0000 0.43960  0.57540  0.35100  Biso   1.000  C
  H318     1.0000 0.42620  0.55690  0.31910  Biso   1.000  H
  C293     1.0000 0.49120  0.59510  0.34760  Biso   1.000  C
  C294     1.0000 0.52620  0.58420  0.30130  Biso   1.000  C
  C295     1.0000 0.58020  0.59960  0.30310  Biso   1.000  C
  H319     1.0000 0.59390  0.61960  0.33390  Biso   1.000  H
  C296     1.0000 0.61580  0.58590  0.25900  Biso   1.000  C
  H320     1.0000 0.65380  0.59430  0.26350  Biso   1.000  H
  C297     1.0000 0.60030  0.56160  0.21030  Biso   1.000  C
  C298     1.0000 0.54390  0.54790  0.21090  Biso   1.000  C
  H321     1.0000 0.52950  0.53080  0.17860  Biso   1.000  H
  C299     1.0000 0.50740  0.55690  0.25370  Biso   1.000  C
  H322     1.0000 0.47020  0.54480  0.25110  Biso   1.000  H
  C300     1.0000 0.63890  0.55050  0.16520  Biso   1.000  C
  C301     1.0000 0.68550  0.57480  0.16110  Biso   1.000  C
  H323     1.0000 0.69640  0.59910  0.18990  Biso   1.000  H
  C302     1.0000 0.72100  0.56760  0.11710  Biso   1.000  C
  H324     1.0000 0.75160  0.59150  0.11180  Biso   1.000  H
  C303     1.0000 0.71040  0.52340  0.07990  Biso   1.000  C
  C304     1.0000 0.66400  0.49190  0.08890  Biso   1.000  C
  H325     1.0000 0.65700  0.46070  0.06600  Biso   1.000  H
  C305     1.0000 0.62680  0.50500  0.13110  Biso   1.000  C
  H326     1.0000 0.59430  0.48380  0.13660  Biso   1.000  H
  C306     1.0000 0.75040  0.51460  0.03330  Biso   1.000  C
  C307     1.0000 0.74050  0.47100  0.99470  Biso   1.000  C
  H327     1.0000 0.70890  0.44840  0.00070  Biso   1.000  H
  C308     1.0000 0.77330  0.45910  0.94930  Biso   1.000  C
  C309     1.0000 0.75990  0.41320  0.91220  Biso   1.000  C
  C310     1.0000 0.80400  0.37070  0.91940  Biso   1.000  C
  H328     1.0000 0.84030  0.38810  0.91510  Biso   1.000  H
  H329     1.0000 0.79950  0.34170  0.89150  Biso   1.000  H
  H330     1.0000 0.80120  0.35440  0.95630  Biso   1.000  H
  C311     1.0000 0.76170  0.43820  0.85250  Biso   1.000  C
  H331     1.0000 0.79830  0.45410  0.84560  Biso   1.000  H
  H332     1.0000 0.73360  0.46700  0.84900  Biso   1.000  H
  H333     1.0000 0.75440  0.40890  0.82540  Biso   1.000  H
  C312     1.0000 0.70280  0.38740  0.92460  Biso   1.000  C
  H334     1.0000 0.69260  0.36210  0.89470  Biso   1.000  H
  H335     1.0000 0.67510  0.41680  0.92760  Biso   1.000  H
  H336     1.0000 0.70460  0.36700  0.95960  Biso   1.000  H
  O45      1.0000 0.41420  0.60570  0.43980  Biso   1.000  O
  O46      1.0000 0.51142  0.62520  0.38490  Biso   1.000  O
  O47      1.0000 0.79210  0.54380  0.03327  Biso   1.000  O
  O48      1.0000 0.81810  0.48470  0.93959  Biso   1.000  O
  Cu12     1.0000 0.47829  0.65056  0.45256  Biso   1.000  Cu
